LDHA12
  -MTS-   06061610263D 0   0.00000     0.00000     0

 26 27  0  0  0  0  0  0  0  0999 V2000
    0.9766    6.7544   12.9022 C   0  0  0  0  0  0  0  0  0  0  0  0
   -0.3711    6.7779   13.5926 C   0  0  0  0  0  0  0  0  0  0  0  0
   -0.8395    5.8008   14.1813 O   0  0  0  0  0  0  0  0  0  0  0  0
   -1.0426    7.9706   13.5019 N   0  0  0  0  0  0  0  0  0  0  0  0
   -2.4517    8.1719   13.6426 C   0  0  0  0  0  0  0  0  0  0  0  0
   -3.1796    8.9096   12.7008 C   0  0  0  0  0  0  0  0  0  0  0  0
   -4.5428    9.0966   12.8536 C   0  0  0  0  0  0  0  0  0  0  0  0
   -5.2188    8.5533   13.9369 C   0  0  0  0  0  0  0  0  0  0  0  0
   -4.4737    7.8195   14.8642 C   0  0  0  0  0  0  0  0  0  0  0  0
   -3.1049    7.6293   14.7248 C   0  0  0  0  0  0  0  0  0  0  0  0
   -5.5071    7.2324   16.1419 S   0  0  0  0  0  0  0  0  0  0  0  0
   -6.8703    8.0263   15.3426 C   0  0  0  0  0  0  0  0  0  0  0  0
   -6.5846    8.6528   14.2302 N   0  0  0  0  0  0  0  0  0  0  0  0
   -8.0728    7.9714   15.8335 N   0  0  0  0  0  0  0  0  0  0  0  0
   -8.4480    7.1913   16.9968 C   0  0  0  0  0  0  0  0  0  0  0  0
   -8.2377    6.1281   16.8088 H   0  0  0  0  0  0  0  0  0  0  0  0
   -7.8692    7.5310   17.8684 H   0  0  0  0  0  0  0  0  0  0  0  0
   -9.5218    7.3231   17.1958 H   0  0  0  0  0  0  0  0  0  0  0  0
   -8.8085    8.5188   15.3646 H   0  0  0  0  0  0  0  0  0  0  0  0
   -2.5553    7.0573   15.4636 H   0  0  0  0  0  0  0  0  0  0  0  0
   -5.0892    9.6750   12.1174 H   0  0  0  0  0  0  0  0  0  0  0  0
   -2.6712    9.3380   11.8446 H   0  0  0  0  0  0  0  0  0  0  0  0
   -0.4898    8.7835   13.3184 H   0  0  0  0  0  0  0  0  0  0  0  0
    0.8432    6.9625   11.8304 H   0  0  0  0  0  0  0  0  0  0  0  0
    1.6294    7.5204   13.3461 H   0  0  0  0  0  0  0  0  0  0  0  0
    1.4361    5.7630   13.0287 H   0  0  0  0  0  0  0  0  0  0  0  0
 15 14  1  0  0  0  0
 14 12  1  0  0  0  0
 12 13  2  0  0  0  0
 12 11  1  0  0  0  0
 11  9  1  0  0  0  0
  9 10  2  0  0  0  0
  9  8  1  0  0  0  0
  8 13  1  0  0  0  0
  8  7  2  0  0  0  0
  7  6  1  0  0  0  0
  6  5  2  0  0  0  0
  5 10  1  0  0  0  0
  5  4  1  0  0  0  0
  4  2  1  0  0  0  0
  2  3  2  0  0  0  0
  2  1  1  0  0  0  0
  1 26  1  0  0  0  0
  1 25  1  0  0  0  0
  1 24  1  0  0  0  0
  4 23  1  0  0  0  0
  6 22  1  0  0  0  0
  7 21  1  0  0  0  0
 10 20  1  0  0  0  0
 14 19  1  0  0  0  0
 15 18  1  0  0  0  0
 15 17  1  0  0  0  0
 15 16  1  0  0  0  0
M  END
>  <EXTREG>  (LDHA12)
LDHA12

$$$$
LDHA14
  -MTS-   06061610263D 0   0.00000     0.00000     0

 17 18  0  0  0  0  0  0  0  0999 V2000
   -5.8071    7.4174   15.3697 C   0  0  0  0  0  0  0  0  0  0  0  0
   -4.6853    7.7765   14.6557 C   0  0  0  0  0  0  0  0  0  0  0  0
   -4.7632    8.7738   13.6947 C   0  0  0  0  0  0  0  0  0  0  0  0
   -5.9800    9.4033   13.4602 C   0  0  0  0  0  0  0  0  0  0  0  0
   -7.1305    9.0529   14.1688 C   0  0  0  0  0  0  0  0  0  0  0  0
   -7.0285    8.0487   15.1337 C   0  0  0  0  0  0  0  0  0  0  0  0
   -8.4764    9.7027   13.9533 C   0  0  0  0  0  0  0  0  0  0  0  0
   -8.9689   10.1631   12.8128 N   0  0  0  0  0  0  0  0  0  0  0  0
  -10.2081   10.6455   13.1013 N   0  0  0  0  0  0  0  0  0  0  0  0
  -10.4730   10.4969   14.3576 N   0  0  0  0  0  0  0  0  0  0  0  0
   -9.3949    9.9034   14.9078 N   0  0  0  0  0  0  0  0  0  0  0  0
   -6.0038   10.6459   12.2457 Cl  0  0  0  0  0  0  0  0  0  0  0  0
   -8.5066   10.1570   11.8925 H   0  0  0  0  0  0  0  0  0  0  0  0
   -7.9040    7.7579   15.7030 H   0  0  0  0  0  0  0  0  0  0  0  0
   -3.8824    9.0598   13.1313 H   0  0  0  0  0  0  0  0  0  0  0  0
   -3.7408    7.2794   14.8449 H   0  0  0  0  0  0  0  0  0  0  0  0
   -5.7404    6.6384   16.1206 H   0  0  0  0  0  0  0  0  0  0  0  0
 12  4  1  0  0  0  0
  4  5  1  0  0  0  0
  4  3  2  0  0  0  0
  3  2  1  0  0  0  0
  2  1  2  0  0  0  0
  1  6  1  0  0  0  0
  6  5  2  0  0  0  0
  5  7  1  0  0  0  0
  7 11  2  0  0  0  0
  7  8  1  0  0  0  0
  8  9  1  0  0  0  0
  9 10  2  0  0  0  0
 10 11  1  0  0  0  0
  1 17  1  0  0  0  0
  2 16  1  0  0  0  0
  3 15  1  0  0  0  0
  6 14  1  0  0  0  0
  8 13  1  0  0  0  0
M  END
>  <EXTREG>  (LDHA14)
LDHA14

$$$$
LDHA15
  -MTS-   06061610263D 0   0.00000     0.00000     0

 24 25  0  0  0  0  0  0  0  0999 V2000
    0.9766    6.7544   12.9022 C   0  0  0  0  0  0  0  0  0  0  0  0
   -0.3711    6.7779   13.5926 C   0  0  0  0  0  0  0  0  0  0  0  0
   -0.8395    5.8008   14.1813 O   0  0  0  0  0  0  0  0  0  0  0  0
   -1.0426    7.9706   13.5019 N   0  0  0  0  0  0  0  0  0  0  0  0
   -2.4517    8.1719   13.6426 C   0  0  0  0  0  0  0  0  0  0  0  0
   -3.1796    8.9096   12.7008 C   0  0  0  0  0  0  0  0  0  0  0  0
   -4.5428    9.0966   12.8536 C   0  0  0  0  0  0  0  0  0  0  0  0
   -5.2188    8.5533   13.9369 C   0  0  0  0  0  0  0  0  0  0  0  0
   -4.4737    7.8195   14.8642 C   0  0  0  0  0  0  0  0  0  0  0  0
   -3.1049    7.6293   14.7248 C   0  0  0  0  0  0  0  0  0  0  0  0
   -5.5071    7.2324   16.1419 S   0  0  0  0  0  0  0  0  0  0  0  0
   -6.8703    8.0263   15.3426 C   0  0  0  0  0  0  0  0  0  0  0  0
   -6.5846    8.6528   14.2302 N   0  0  0  0  0  0  0  0  0  0  0  0
   -8.2621    7.9841   15.9030 C   0  0  0  0  0  0  0  0  0  0  0  0
   -8.5973    6.9389   15.9741 H   0  0  0  0  0  0  0  0  0  0  0  0
   -8.2683    8.4401   16.9040 H   0  0  0  0  0  0  0  0  0  0  0  0
   -2.5553    7.0573   15.4636 H   0  0  0  0  0  0  0  0  0  0  0  0
   -5.0892    9.6750   12.1174 H   0  0  0  0  0  0  0  0  0  0  0  0
   -2.6712    9.3380   11.8446 H   0  0  0  0  0  0  0  0  0  0  0  0
   -0.4898    8.7835   13.3184 H   0  0  0  0  0  0  0  0  0  0  0  0
    0.8432    6.9625   11.8304 H   0  0  0  0  0  0  0  0  0  0  0  0
    1.6294    7.5204   13.3461 H   0  0  0  0  0  0  0  0  0  0  0  0
    1.4361    5.7630   13.0287 H   0  0  0  0  0  0  0  0  0  0  0  0
   -8.9408    8.5426   15.2416 H   0  0  0  0  0  0  0  0  0  0  0  0
 12 14  1  0  0  0  0
 14 24  1  0  0  0  0
 12 13  2  0  0  0  0
 12 11  1  0  0  0  0
 11  9  1  0  0  0  0
  9 10  2  0  0  0  0
  9  8  1  0  0  0  0
 13  8  1  0  0  0  0
  8  7  2  0  0  0  0
  7  6  1  0  0  0  0
  6  5  2  0  0  0  0
 10  5  1  0  0  0  0
  5  4  1  0  0  0  0
  4  2  1  0  0  0  0
  2  3  2  0  0  0  0
  2  1  1  0  0  0  0
  1 23  1  0  0  0  0
  1 22  1  0  0  0  0
  1 21  1  0  0  0  0
  4 20  1  0  0  0  0
  6 19  1  0  0  0  0
  7 18  1  0  0  0  0
 10 17  1  0  0  0  0
 14 16  1  0  0  0  0
 14 15  1  0  0  0  0
M  END
>  <EXTREG>  (LDHA15)
LDHA15

$$$$
LDHA16
  -MTS-   06061610263D 0   0.00000     0.00000     0

 29 30  0  0  0  0  0  0  0  0999 V2000
   -4.5178    9.2370   12.8851 C   0  0  0  0  0  0  0  0  0  0  0  0
   -3.1586    8.9695   12.7942 C   0  0  0  0  0  0  0  0  0  0  0  0
   -3.2785    7.5949   14.7860 C   0  0  0  0  0  0  0  0  0  0  0  0
   -5.2728    8.6870   13.9218 C   0  0  0  0  0  0  0  0  0  0  0  0
   -2.5287    8.1572   13.7356 C   0  0  0  0  0  0  0  0  0  0  0  0
   -4.6338    7.8674   14.8548 C   0  0  0  0  0  0  0  0  0  0  0  0
   -7.0146    8.2273   15.1760 C   0  0  0  0  0  0  0  0  0  0  0  0
   -8.4412    8.2527   15.6420 C   0  0  0  0  0  0  0  0  0  0  0  0
   -0.4523    6.7960   14.0105 C   0  0  0  0  0  0  0  0  0  0  0  0
    3.0598    5.4855   13.8712 C   0  0  0  0  0  0  0  0  0  0  0  0
    1.0164    6.9937   14.2143 C   0  0  0  0  0  0  0  0  0  0  0  0
    1.8442    6.1215   13.2680 C   0  0  0  0  0  0  0  0  0  0  0  0
   -6.6369    8.8696   14.1304 N   0  0  0  0  0  0  0  0  0  0  0  0
   -1.1274    7.9113   13.6021 N   0  0  0  0  0  0  0  0  0  0  0  0
   -1.0060    5.6984   14.2038 O   0  0  0  0  0  0  0  0  0  0  0  0
    3.5413    5.8186   14.9508 O   0  0  0  0  0  0  0  0  0  0  0  0
    3.5737    4.5482   13.1191 O   0  0  0  0  0  0  0  0  0  0  0  0
   -5.7858    7.3202   16.0324 S   0  0  0  0  0  0  0  0  0  0  0  0
   -0.5854    8.6290   13.1650 H   0  0  0  0  0  0  0  0  0  0  0  0
    1.1935    5.3184   12.8916 H   0  0  0  0  0  0  0  0  0  0  0  0
    2.1731    6.7510   12.4281 H   0  0  0  0  0  0  0  0  0  0  0  0
    1.2622    8.0501   14.0312 H   0  0  0  0  0  0  0  0  0  0  0  0
    1.2701    6.7327   15.2524 H   0  0  0  0  0  0  0  0  0  0  0  0
   -2.8039    6.9610   15.5263 H   0  0  0  0  0  0  0  0  0  0  0  0
   -2.5811    9.3968   11.9825 H   0  0  0  0  0  0  0  0  0  0  0  0
   -4.9938    9.8746   12.1490 H   0  0  0  0  0  0  0  0  0  0  0  0
   -8.8440    7.2291   15.6459 H   0  0  0  0  0  0  0  0  0  0  0  0
   -8.4874    8.6689   16.6592 H   0  0  0  0  0  0  0  0  0  0  0  0
   -9.0378    8.8789   14.9623 H   0  0  0  0  0  0  0  0  0  0  0  0
  7  8  1  0  0  0  0
  8 29  1  0  0  0  0
  7 18  1  0  0  0  0
  7 13  2  0  0  0  0
 13  4  1  0  0  0  0
  4  6  2  0  0  0  0
  4  1  1  0  0  0  0
  1  2  2  0  0  0  0
  2  5  1  0  0  0  0
  5 14  1  0  0  0  0
  5  3  2  0  0  0  0
  3  6  1  0  0  0  0
  6 18  1  0  0  0  0
 14  9  1  0  0  0  0
  9 15  2  0  0  0  0
  9 11  1  0  0  0  0
 11 12  1  0  0  0  0
 12 10  1  0  0  0  0
 10 17  1  0  0  0  0
 10 16  2  0  0  0  0
  8 28  1  0  0  0  0
  8 27  1  0  0  0  0
  1 26  1  0  0  0  0
  2 25  1  0  0  0  0
  3 24  1  0  0  0  0
 11 23  1  0  0  0  0
 11 22  1  0  0  0  0
 12 21  1  0  0  0  0
 12 20  1  0  0  0  0
 14 19  1  0  0  0  0
M  END
>  <EXTREG>  (LDHA16)
LDHA16

$$$$
LDHA17
  -MTS-   06061610263D 0   0.00000     0.00000     0

 36 37  0  0  0  0  0  0  0  0999 V2000
   -4.5178    9.2370   12.8851 C   0  0  0  0  0  0  0  0  0  0  0  0
   -3.1586    8.9695   12.7942 C   0  0  0  0  0  0  0  0  0  0  0  0
   -3.2785    7.5949   14.7860 C   0  0  0  0  0  0  0  0  0  0  0  0
   -5.2728    8.6870   13.9218 C   0  0  0  0  0  0  0  0  0  0  0  0
   -2.5287    8.1572   13.7356 C   0  0  0  0  0  0  0  0  0  0  0  0
   -4.6338    7.8674   14.8548 C   0  0  0  0  0  0  0  0  0  0  0  0
   -7.0146    8.2273   15.1760 C   0  0  0  0  0  0  0  0  0  0  0  0
   -9.4817    8.3894   19.8759 C   0  0  0  0  0  0  0  0  0  0  0  0
   -8.7984    8.6420   18.5191 C   0  0  0  0  0  0  0  0  0  0  0  0
   -0.4523    6.7960   14.0105 C   0  0  0  0  0  0  0  0  0  0  0  0
    3.0598    5.4855   13.8712 C   0  0  0  0  0  0  0  0  0  0  0  0
   -8.6491    7.5704   17.4232 C   0  0  0  0  0  0  0  0  0  0  0  0
    1.0164    6.9937   14.2143 C   0  0  0  0  0  0  0  0  0  0  0  0
    1.8442    6.1215   13.2680 C   0  0  0  0  0  0  0  0  0  0  0  0
   -6.6369    8.8696   14.1304 N   0  0  0  0  0  0  0  0  0  0  0  0
   -1.1274    7.9113   13.6021 N   0  0  0  0  0  0  0  0  0  0  0  0
   -1.0060    5.6984   14.2038 O   0  0  0  0  0  0  0  0  0  0  0  0
    3.5413    5.8186   14.9508 O   0  0  0  0  0  0  0  0  0  0  0  0
    3.5737    4.5482   13.1191 O   0  0  0  0  0  0  0  0  0  0  0  0
   -5.7858    7.3202   16.0324 S   0  0  0  0  0  0  0  0  0  0  0  0
   -8.7066    8.2241   15.7288 S   0  0  0  0  0  0  0  0  0  0  0  0
   -7.7763    8.9726   18.7557 H   0  0  0  0  0  0  0  0  0  0  0  0
   -9.3533    9.4702   18.0542 H   0  0  0  0  0  0  0  0  0  0  0  0
   -0.5854    8.6290   13.1650 H   0  0  0  0  0  0  0  0  0  0  0  0
    1.1935    5.3184   12.8916 H   0  0  0  0  0  0  0  0  0  0  0  0
    2.1731    6.7510   12.4281 H   0  0  0  0  0  0  0  0  0  0  0  0
    1.2622    8.0501   14.0312 H   0  0  0  0  0  0  0  0  0  0  0  0
    1.2701    6.7327   15.2524 H   0  0  0  0  0  0  0  0  0  0  0  0
   -9.4650    6.8420   17.5397 H   0  0  0  0  0  0  0  0  0  0  0  0
   -7.6827    7.0645   17.5650 H   0  0  0  0  0  0  0  0  0  0  0  0
  -10.5262    8.0872   19.7099 H   0  0  0  0  0  0  0  0  0  0  0  0
   -8.9492    7.5896   20.4114 H   0  0  0  0  0  0  0  0  0  0  0  0
   -9.4577    9.3112   20.4757 H   0  0  0  0  0  0  0  0  0  0  0  0
   -2.8039    6.9610   15.5263 H   0  0  0  0  0  0  0  0  0  0  0  0
   -2.5811    9.3968   11.9825 H   0  0  0  0  0  0  0  0  0  0  0  0
   -4.9938    9.8746   12.1490 H   0  0  0  0  0  0  0  0  0  0  0  0
 21 12  1  0  0  0  0
 21  7  1  0  0  0  0
  7 20  1  0  0  0  0
  7 15  2  0  0  0  0
 15  4  1  0  0  0  0
  4  6  2  0  0  0  0
  4  1  1  0  0  0  0
  1  2  2  0  0  0  0
  2  5  1  0  0  0  0
  5 16  1  0  0  0  0
  5  3  2  0  0  0  0
  3  6  1  0  0  0  0
  6 20  1  0  0  0  0
 16 10  1  0  0  0  0
 10 17  2  0  0  0  0
 10 13  1  0  0  0  0
 13 14  1  0  0  0  0
 14 11  1  0  0  0  0
 11 19  1  0  0  0  0
 11 18  2  0  0  0  0
 12  9  1  0  0  0  0
  9  8  1  0  0  0  0
  1 36  1  0  0  0  0
  2 35  1  0  0  0  0
  3 34  1  0  0  0  0
  8 33  1  0  0  0  0
  8 32  1  0  0  0  0
  8 31  1  0  0  0  0
 12 30  1  0  0  0  0
 12 29  1  0  0  0  0
 13 28  1  0  0  0  0
 13 27  1  0  0  0  0
 14 26  1  0  0  0  0
 14 25  1  0  0  0  0
 16 24  1  0  0  0  0
  9 23  1  0  0  0  0
  9 22  1  0  0  0  0
M  END
>  <EXTREG>  (LDHA17)
LDHA17

$$$$
LDHA18
  -MTS-   06061610263D 0   0.00000     0.00000     0

 34 35  0  0  0  0  0  0  0  0999 V2000
   -4.5178    9.2370   12.8851 C   0  0  0  0  0  0  0  0  0  0  0  0
   -3.1586    8.9695   12.7942 C   0  0  0  0  0  0  0  0  0  0  0  0
   -3.2785    7.5949   14.7860 C   0  0  0  0  0  0  0  0  0  0  0  0
   -5.2728    8.6870   13.9218 C   0  0  0  0  0  0  0  0  0  0  0  0
   -2.5287    8.1572   13.7356 C   0  0  0  0  0  0  0  0  0  0  0  0
   -4.6338    7.8674   14.8548 C   0  0  0  0  0  0  0  0  0  0  0  0
   -7.0146    8.2273   15.1760 C   0  0  0  0  0  0  0  0  0  0  0  0
   -9.3587    8.4082   19.6127 C   0  0  0  0  0  0  0  0  0  0  0  0
   -8.7949    8.6166   18.4931 C   0  0  0  0  0  0  0  0  0  0  0  0
   -0.4523    6.7960   14.0105 C   0  0  0  0  0  0  0  0  0  0  0  0
    3.0598    5.4855   13.8712 C   0  0  0  0  0  0  0  0  0  0  0  0
   -8.6491    7.5704   17.4232 C   0  0  0  0  0  0  0  0  0  0  0  0
    1.0164    6.9937   14.2143 C   0  0  0  0  0  0  0  0  0  0  0  0
    1.8442    6.1215   13.2680 C   0  0  0  0  0  0  0  0  0  0  0  0
   -6.6369    8.8696   14.1304 N   0  0  0  0  0  0  0  0  0  0  0  0
   -1.1274    7.9113   13.6021 N   0  0  0  0  0  0  0  0  0  0  0  0
   -1.0060    5.6984   14.2038 O   0  0  0  0  0  0  0  0  0  0  0  0
    3.5413    5.8186   14.9508 O   0  0  0  0  0  0  0  0  0  0  0  0
    3.5737    4.5482   13.1191 O   0  0  0  0  0  0  0  0  0  0  0  0
   -5.7858    7.3202   16.0324 S   0  0  0  0  0  0  0  0  0  0  0  0
   -8.7066    8.2241   15.7288 S   0  0  0  0  0  0  0  0  0  0  0  0
   -0.5854    8.6290   13.1650 H   0  0  0  0  0  0  0  0  0  0  0  0
    1.1935    5.3184   12.8916 H   0  0  0  0  0  0  0  0  0  0  0  0
    2.1731    6.7510   12.4281 H   0  0  0  0  0  0  0  0  0  0  0  0
    1.2622    8.0501   14.0312 H   0  0  0  0  0  0  0  0  0  0  0  0
    1.2701    6.7327   15.2524 H   0  0  0  0  0  0  0  0  0  0  0  0
   -9.4650    6.8420   17.5397 H   0  0  0  0  0  0  0  0  0  0  0  0
   -7.6827    7.0645   17.5650 H   0  0  0  0  0  0  0  0  0  0  0  0
   -8.3943    9.6102   18.2973 H   0  0  0  0  0  0  0  0  0  0  0  0
   -9.7700    7.4260   19.8407 H   0  0  0  0  0  0  0  0  0  0  0  0
   -9.4305    9.2118   20.3441 H   0  0  0  0  0  0  0  0  0  0  0  0
   -2.8039    6.9610   15.5263 H   0  0  0  0  0  0  0  0  0  0  0  0
   -2.5811    9.3968   11.9825 H   0  0  0  0  0  0  0  0  0  0  0  0
   -4.9938    9.8746   12.1490 H   0  0  0  0  0  0  0  0  0  0  0  0
 21 12  1  0  0  0  0
 21  7  1  0  0  0  0
  7 20  1  0  0  0  0
  7 15  2  0  0  0  0
 15  4  1  0  0  0  0
  4  6  2  0  0  0  0
  4  1  1  0  0  0  0
  1  2  2  0  0  0  0
  2  5  1  0  0  0  0
  5 16  1  0  0  0  0
  5  3  2  0  0  0  0
  3  6  1  0  0  0  0
  6 20  1  0  0  0  0
 16 10  1  0  0  0  0
 10 17  2  0  0  0  0
 10 13  1  0  0  0  0
 13 14  1  0  0  0  0
 14 11  1  0  0  0  0
 11 19  1  0  0  0  0
 11 18  2  0  0  0  0
 12  9  1  0  0  0  0
  9  8  2  0  0  0  0
  1 34  1  0  0  0  0
  2 33  1  0  0  0  0
  3 32  1  0  0  0  0
  8 31  1  0  0  0  0
  8 30  1  0  0  0  0
  9 29  1  0  0  0  0
 12 28  1  0  0  0  0
 12 27  1  0  0  0  0
 13 26  1  0  0  0  0
 13 25  1  0  0  0  0
 14 24  1  0  0  0  0
 14 23  1  0  0  0  0
 16 22  1  0  0  0  0
M  END
>  <EXTREG>  (LDHA18)
LDHA18

$$$$
LDHA19
  -MTS-   06061610263D 0   0.00000     0.00000     0

  9  8  0  0  0  0  0  0  0  0999 V2000
    5.4447   -2.9482    5.3295 C   0  0  0  0  0  0  0  0  0  0  0  0
    6.3187   -4.1918    5.4633 C   0  0  0  0  0  0  0  0  0  0  0  0
    4.2924   -3.0640    6.3261 C   0  0  0  0  0  0  0  0  0  0  0  0
    5.8184   -5.2711    5.0317 O   0  0  0  0  0  0  0  0  0  0  0  0
    7.4476   -4.0003    5.9883 O   0  0  0  0  0  0  0  0  0  0  0  0
    4.1412   -2.0630    7.1111 O   0  0  0  0  0  0  0  0  0  0  0  0
    3.6342   -4.1401    6.2565 O   0  0  0  0  0  0  0  0  0  0  0  0
    5.0466   -2.8815    4.3063 H   0  0  0  0  0  0  0  0  0  0  0  0
    6.0395   -2.0497    5.5509 H   0  0  0  0  0  0  0  0  0  0  0  0
  7  3  1  0  0  0  0
  3  6  2  0  0  0  0
  3  1  1  0  0  0  0
  1  2  1  0  0  0  0
  2  5  1  0  0  0  0
  2  4  2  0  0  0  0
  1  9  1  0  0  0  0
  1  8  1  0  0  0  0
M  END
>  <EXTREG>  (LDHA19)
LDHA19

$$$$
LDHA20
  -MTS-   06061610263D 0   0.00000     0.00000     0

 20 20  0  0  0  0  0  0  0  0999 V2000
    3.2066   -1.6689    6.4009 C   0  0  0  0  0  0  0  0  0  0  0  0
    4.9318   -1.0132    7.9445 C   0  0  0  0  0  0  0  0  0  0  0  0
    2.3272   -0.7848    7.0050 C   0  0  0  0  0  0  0  0  0  0  0  0
    4.0551   -0.1346    8.5507 C   0  0  0  0  0  0  0  0  0  0  0  0
    4.5015   -1.7810    6.8713 C   0  0  0  0  0  0  0  0  0  0  0  0
    2.7586   -0.0351    8.0623 C   0  0  0  0  0  0  0  0  0  0  0  0
    4.5457   -4.6555    7.1896 C   0  0  0  0  0  0  0  0  0  0  0  0
    6.2839   -4.6736    5.3697 C   0  0  0  0  0  0  0  0  0  0  0  0
    5.0480   -3.9767    5.9251 C   0  0  0  0  0  0  0  0  0  0  0  0
    5.0928   -4.4959    8.2986 O   0  0  0  0  0  0  0  0  0  0  0  0
    6.2376   -5.7454    4.7799 O   0  0  0  0  0  0  0  0  0  0  0  0
    3.4877   -5.3643    6.9715 O   0  0  0  0  0  0  0  0  0  0  0  0
    7.3763   -4.0159    5.5941 O   0  0  0  0  0  0  0  0  0  0  0  0
    5.4227   -2.6226    6.2942 O   0  0  0  0  0  0  0  0  0  0  0  0
    1.5546    1.1768    8.8808 Br  0  0  0  0  0  0  0  0  0  0  0  0
    4.2540   -3.9661    5.1639 H   0  0  0  0  0  0  0  0  0  0  0  0
    4.3737    0.4675    9.3939 H   0  0  0  0  0  0  0  0  0  0  0  0
    1.3098   -0.6893    6.6432 H   0  0  0  0  0  0  0  0  0  0  0  0
    5.9502   -1.1025    8.3049 H   0  0  0  0  0  0  0  0  0  0  0  0
    2.8798   -2.2714    5.5611 H   0  0  0  0  0  0  0  0  0  0  0  0
 15  6  1  0  0  0  0
  6  4  2  0  0  0  0
  6  3  1  0  0  0  0
  3  1  2  0  0  0  0
  1  5  1  0  0  0  0
  5 14  1  0  0  0  0
  5  2  2  0  0  0  0
  2  4  1  0  0  0  0
 14  9  1  0  0  0  0
  9  8  1  0  0  0  0
  9  7  1  0  0  0  0
  7 12  1  0  0  0  0
  7 10  2  0  0  0  0
  8 13  1  0  0  0  0
  8 11  2  0  0  0  0
  1 20  1  0  0  0  0
  2 19  1  0  0  0  0
  3 18  1  0  0  0  0
  4 17  1  0  0  0  0
  9 16  1  0  0  0  0
M  END
>  <EXTREG>  (LDHA20)
LDHA20

$$$$
LDHA21
  -MTS-   06061610263D 0   0.00000     0.00000     0

 30 30  0  0  0  0  0  0  0  0999 V2000
    1.4375    1.4917    9.2700 C   0  0  0  0  0  0  0  0  0  0  0  0
    2.1617    0.3193    9.6210 O   0  0  0  0  0  0  0  0  0  0  0  0
    2.9012   -0.2914    8.6434 C   0  0  0  0  0  0  0  0  0  0  0  0
    2.3883   -0.7646    7.4449 C   0  0  0  0  0  0  0  0  0  0  0  0
    3.2304   -1.3908    6.5137 C   0  0  0  0  0  0  0  0  0  0  0  0
    4.5883   -1.5309    6.7784 C   0  0  0  0  0  0  0  0  0  0  0  0
    5.0871   -1.0699    7.9885 C   0  0  0  0  0  0  0  0  0  0  0  0
    4.2727   -0.4456    8.9117 C   0  0  0  0  0  0  0  0  0  0  0  0
    4.7072    0.0451   10.1050 O   0  0  0  0  0  0  0  0  0  0  0  0
    6.1193    0.3532   10.2324 C   0  0  0  0  0  0  0  0  0  0  0  0
    5.5073   -2.2325    5.8337 C   0  0  0  0  0  0  0  0  0  0  0  0
    5.8775   -3.6501    6.2992 C   0  0  0  0  0  0  0  0  0  0  0  0
    4.6674   -4.5497    6.2805 C   0  0  0  0  0  0  0  0  0  0  0  0
    3.8314   -4.4612    5.4278 O   0  0  0  0  0  0  0  0  0  0  0  0
    4.6271   -5.4422    7.2519 O   0  0  0  0  0  0  0  0  0  0  0  0
    6.9540   -4.2513    5.4360 C   0  0  0  0  0  0  0  0  0  0  0  0
    6.7075   -5.1793    4.6785 O   0  0  0  0  0  0  0  0  0  0  0  0
    8.1534   -3.6591    5.5544 O   0  0  0  0  0  0  0  0  0  0  0  0
    6.2527   -3.5859    7.3312 H   0  0  0  0  0  0  0  0  0  0  0  0
    6.4306   -1.6421    5.7391 H   0  0  0  0  0  0  0  0  0  0  0  0
    5.0148   -2.3029    4.8526 H   0  0  0  0  0  0  0  0  0  0  0  0
    6.7104   -0.5588   10.0624 H   0  0  0  0  0  0  0  0  0  0  0  0
    6.3971    1.1143    9.4884 H   0  0  0  0  0  0  0  0  0  0  0  0
    6.3209    0.7377   11.2431 H   0  0  0  0  0  0  0  0  0  0  0  0
    6.1391   -1.2029    8.2136 H   0  0  0  0  0  0  0  0  0  0  0  0
    2.8205   -1.7672    5.5834 H   0  0  0  0  0  0  0  0  0  0  0  0
    1.3327   -0.6502    7.2268 H   0  0  0  0  0  0  0  0  0  0  0  0
    2.1374    2.2625    8.9150 H   0  0  0  0  0  0  0  0  0  0  0  0
    0.7187    1.2536    8.4721 H   0  0  0  0  0  0  0  0  0  0  0  0
    0.8962    1.8659   10.1514 H   0  0  0  0  0  0  0  0  0  0  0  0
 18 16  1  0  0  0  0
 16 17  2  0  0  0  0
 16 12  1  0  0  0  0
 12 13  1  0  0  0  0
 12 11  1  0  0  0  0
 11  6  1  0  0  0  0
  6  7  1  0  0  0  0
  6  5  2  0  0  0  0
  5  4  1  0  0  0  0
  4  3  2  0  0  0  0
  3  8  1  0  0  0  0
  3  2  1  0  0  0  0
  2  1  1  0  0  0  0
  8  9  1  0  0  0  0
  8  7  2  0  0  0  0
  9 10  1  0  0  0  0
 13 15  1  0  0  0  0
 13 14  2  0  0  0  0
  1 30  1  0  0  0  0
  1 29  1  0  0  0  0
  1 28  1  0  0  0  0
  4 27  1  0  0  0  0
  5 26  1  0  0  0  0
  7 25  1  0  0  0  0
 10 24  1  0  0  0  0
 10 23  1  0  0  0  0
 10 22  1  0  0  0  0
 11 21  1  0  0  0  0
 11 20  1  0  0  0  0
 12 19  1  0  0  0  0
M  END
>  <EXTREG>  (LDHA21)
LDHA21

$$$$
LDHA22
  -MTS-   06061610263D 0   0.00000     0.00000     0

 33 34  0  0  0  0  0  0  0  0999 V2000
   -4.7053    9.3642   12.9602 C   0  0  0  0  0  0  0  0  0  0  0  0
   -3.3325    9.2048   12.8365 C   0  0  0  0  0  0  0  0  0  0  0  0
   -3.2920    7.7286   14.7557 C   0  0  0  0  0  0  0  0  0  0  0  0
   -5.3853    8.7222   14.0014 C   0  0  0  0  0  0  0  0  0  0  0  0
   -2.6246    8.3756   13.7166 C   0  0  0  0  0  0  0  0  0  0  0  0
   -4.6583    7.9172   14.8870 C   0  0  0  0  0  0  0  0  0  0  0  0
   -7.0447    8.1192   15.3551 C   0  0  0  0  0  0  0  0  0  0  0  0
   -0.5182    7.0517   13.7187 C   0  0  0  0  0  0  0  0  0  0  0  0
    2.0265    4.1370   12.4335 C   0  0  0  0  0  0  0  0  0  0  0  0
   -8.4435    8.0346   15.8929 C   0  0  0  0  0  0  0  0  0  0  0  0
    0.9218    7.1631   13.2478 C   0  0  0  0  0  0  0  0  0  0  0  0
    1.8447    6.1397   13.8712 C   0  0  0  0  0  0  0  0  0  0  0  0
   -6.7446    8.8216   14.2848 N   0  0  0  0  0  0  0  0  0  0  0  0
    1.5117    2.9290   12.1373 N   0  0  0  0  0  0  0  0  0  0  0  0
   -1.2302    8.1883   13.5556 N   0  0  0  0  0  0  0  0  0  0  0  0
    1.4815    4.7726   13.4765 N   0  0  0  0  0  0  0  0  0  0  0  0
   -0.9927    6.0045   14.1951 O   0  0  0  0  0  0  0  0  0  0  0  0
    2.9502    4.6468   11.7687 O   0  0  0  0  0  0  0  0  0  0  0  0
   -5.7129    7.2651   16.0942 S   0  0  0  0  0  0  0  0  0  0  0  0
    0.7904    4.2916   14.0159 H   0  0  0  0  0  0  0  0  0  0  0  0
   -0.7076    8.9978   13.2880 H   0  0  0  0  0  0  0  0  0  0  0  0
    0.7637    2.5560   12.6863 H   0  0  0  0  0  0  0  0  0  0  0  0
    1.8772    2.4046   11.3683 H   0  0  0  0  0  0  0  0  0  0  0  0
    2.8755    6.3433   13.5455 H   0  0  0  0  0  0  0  0  0  0  0  0
    1.7828    6.2234   14.9663 H   0  0  0  0  0  0  0  0  0  0  0  0
    0.9418    7.0297   12.1561 H   0  0  0  0  0  0  0  0  0  0  0  0
    1.2938    8.1667   13.5015 H   0  0  0  0  0  0  0  0  0  0  0  0
   -8.7821    6.9883   15.8710 H   0  0  0  0  0  0  0  0  0  0  0  0
   -8.4611    8.4042   16.9288 H   0  0  0  0  0  0  0  0  0  0  0  0
   -9.1125    8.6495   15.2729 H   0  0  0  0  0  0  0  0  0  0  0  0
   -2.7529    7.0909   15.4469 H   0  0  0  0  0  0  0  0  0  0  0  0
   -2.8014    9.7280   12.0496 H   0  0  0  0  0  0  0  0  0  0  0  0
   -5.2480    9.9825   12.2544 H   0  0  0  0  0  0  0  0  0  0  0  0
 19  7  1  0  0  0  0
 19  6  1  0  0  0  0
  6  4  2  0  0  0  0
  6  3  1  0  0  0  0
  3  5  2  0  0  0  0
  5 15  1  0  0  0  0
  5  2  1  0  0  0  0
  2  1  2  0  0  0  0
  1  4  1  0  0  0  0
  4 13  1  0  0  0  0
 13  7  2  0  0  0  0
  7 10  1  0  0  0  0
 15  8  1  0  0  0  0
  8 17  2  0  0  0  0
  8 11  1  0  0  0  0
 11 12  1  0  0  0  0
 12 16  1  0  0  0  0
 16  9  1  0  0  0  0
  9 18  2  0  0  0  0
  9 14  1  0  0  0  0
  1 33  1  0  0  0  0
  2 32  1  0  0  0  0
  3 31  1  0  0  0  0
 10 30  1  0  0  0  0
 10 29  1  0  0  0  0
 10 28  1  0  0  0  0
 11 27  1  0  0  0  0
 11 26  1  0  0  0  0
 12 25  1  0  0  0  0
 12 24  1  0  0  0  0
 14 23  1  0  0  0  0
 14 22  1  0  0  0  0
 15 21  1  0  0  0  0
 16 20  1  0  0  0  0
M  END
>  <EXTREG>  (LDHA22)
LDHA22

$$$$
LDHA23
  -MTS-   06061610263D 0   0.00000     0.00000     0

 40 41  0  0  0  0  0  0  0  0999 V2000
   -4.5178    9.2370   12.8851 C   0  0  0  0  0  0  0  0  0  0  0  0
   -3.1586    8.9695   12.7942 C   0  0  0  0  0  0  0  0  0  0  0  0
   -3.2785    7.5949   14.7860 C   0  0  0  0  0  0  0  0  0  0  0  0
   -5.2728    8.6870   13.9218 C   0  0  0  0  0  0  0  0  0  0  0  0
   -2.5287    8.1572   13.7356 C   0  0  0  0  0  0  0  0  0  0  0  0
   -4.6338    7.8674   14.8548 C   0  0  0  0  0  0  0  0  0  0  0  0
   -7.0146    8.2273   15.1760 C   0  0  0  0  0  0  0  0  0  0  0  0
   -9.4817    8.3894   19.8759 C   0  0  0  0  0  0  0  0  0  0  0  0
   -8.7984    8.6420   18.5191 C   0  0  0  0  0  0  0  0  0  0  0  0
   -0.4901    6.7954   14.0324 C   0  0  0  0  0  0  0  0  0  0  0  0
    1.8926    3.5407   13.4330 C   0  0  0  0  0  0  0  0  0  0  0  0
   -8.6491    7.5704   17.4232 C   0  0  0  0  0  0  0  0  0  0  0  0
    0.9474    6.7244   13.5447 C   0  0  0  0  0  0  0  0  0  0  0  0
    1.8279    5.8227   14.3812 C   0  0  0  0  0  0  0  0  0  0  0  0
   -6.6369    8.8696   14.1304 N   0  0  0  0  0  0  0  0  0  0  0  0
    1.3154    2.3248   13.4190 N   0  0  0  0  0  0  0  0  0  0  0  0
   -1.1482    7.9004   13.6182 N   0  0  0  0  0  0  0  0  0  0  0  0
    1.3932    4.4221   14.3068 N   0  0  0  0  0  0  0  0  0  0  0  0
   -1.0087    5.9082   14.7346 O   0  0  0  0  0  0  0  0  0  0  0  0
   -5.7858    7.3202   16.0324 S   0  0  0  0  0  0  0  0  0  0  0  0
   -8.7066    8.2241   15.7288 S   0  0  0  0  0  0  0  0  0  0  0  0
    2.8311    3.8398   12.6677 O   0  0  0  0  0  0  0  0  0  0  0  0
    0.6866    4.1109   14.9429 H   0  0  0  0  0  0  0  0  0  0  0  0
   -0.5904    8.6011   13.1730 H   0  0  0  0  0  0  0  0  0  0  0  0
    0.5575    2.1238   14.0401 H   0  0  0  0  0  0  0  0  0  0  0  0
    1.6446    1.6225   12.7874 H   0  0  0  0  0  0  0  0  0  0  0  0
   -7.7763    8.9726   18.7557 H   0  0  0  0  0  0  0  0  0  0  0  0
   -9.3533    9.4702   18.0542 H   0  0  0  0  0  0  0  0  0  0  0  0
    2.8632    5.8950   14.0152 H   0  0  0  0  0  0  0  0  0  0  0  0
    1.7849    6.1544   15.4294 H   0  0  0  0  0  0  0  0  0  0  0  0
    0.9462    6.3473   12.5112 H   0  0  0  0  0  0  0  0  0  0  0  0
    1.3713    7.7392   13.5639 H   0  0  0  0  0  0  0  0  0  0  0  0
   -9.4650    6.8420   17.5397 H   0  0  0  0  0  0  0  0  0  0  0  0
   -7.6827    7.0645   17.5650 H   0  0  0  0  0  0  0  0  0  0  0  0
  -10.5262    8.0872   19.7099 H   0  0  0  0  0  0  0  0  0  0  0  0
   -8.9492    7.5896   20.4114 H   0  0  0  0  0  0  0  0  0  0  0  0
   -9.4577    9.3112   20.4757 H   0  0  0  0  0  0  0  0  0  0  0  0
   -2.8039    6.9610   15.5263 H   0  0  0  0  0  0  0  0  0  0  0  0
   -2.5811    9.3968   11.9825 H   0  0  0  0  0  0  0  0  0  0  0  0
   -4.9938    9.8746   12.1490 H   0  0  0  0  0  0  0  0  0  0  0  0
 21 12  1  0  0  0  0
  7 21  1  0  0  0  0
 20  7  1  0  0  0  0
  7 15  2  0  0  0  0
  4 15  1  0  0  0  0
  6  4  2  0  0  0  0
  1  4  1  0  0  0  0
  2  1  2  0  0  0  0
  5  2  1  0  0  0  0
 17 24  1  0  0  0  0
  5  3  2  0  0  0  0
  3  6  1  0  0  0  0
  6 20  1  0  0  0  0
 17 10  1  0  0  0  0
 10 13  1  0  0  0  0
 10 19  2  0  0  0  0
 13 31  1  0  0  0  0
 13 32  1  0  0  0  0
 13 14  1  0  0  0  0
 14 29  1  0  0  0  0
 12  9  1  0  0  0  0
  9  8  1  0  0  0  0
  1 40  1  0  0  0  0
  2 39  1  0  0  0  0
  3 38  1  0  0  0  0
  8 37  1  0  0  0  0
  8 36  1  0  0  0  0
  8 35  1  0  0  0  0
 12 34  1  0  0  0  0
 12 33  1  0  0  0  0
 14 30  1  0  0  0  0
 14 18  1  0  0  0  0
 18 23  1  0  0  0  0
 18 11  1  0  0  0  0
 11 16  1  0  0  0  0
  9 28  1  0  0  0  0
  9 27  1  0  0  0  0
 11 22  2  0  0  0  0
 16 25  1  0  0  0  0
 16 26  1  0  0  0  0
  5 17  1  0  0  0  0
M  END
>  <EXTREG>  (LDHA23)
LDHA23

$$$$
LDHA24
  -MTS-   06061610263D 0   0.00000     0.00000     0

 39 40  0  0  0  0  0  0  0  0999 V2000
    1.3862    1.9629    9.4050 C   0  0  0  0  0  0  0  0  0  0  0  0
   -4.6817    9.3063   12.9157 C   0  0  0  0  0  0  0  0  0  0  0  0
   -3.3078    9.1623   12.8018 C   0  0  0  0  0  0  0  0  0  0  0  0
    2.1821    2.0545   10.6723 C   0  0  0  0  0  0  0  0  0  0  0  0
   -3.2531    7.7059   14.7386 C   0  0  0  0  0  0  0  0  0  0  0  0
   -5.3572    8.6514   13.9495 C   0  0  0  0  0  0  0  0  0  0  0  0
   -2.5951    8.3497   13.6911 C   0  0  0  0  0  0  0  0  0  0  0  0
   -4.6260    7.8710   14.8533 C   0  0  0  0  0  0  0  0  0  0  0  0
   -7.0359    8.0565   15.2953 C   0  0  0  0  0  0  0  0  0  0  0  0
   -0.5079    6.9846   13.6752 C   0  0  0  0  0  0  0  0  0  0  0  0
    2.0610    4.0323   12.1349 C   0  0  0  0  0  0  0  0  0  0  0  0
   -8.4049    7.9955   15.9078 C   0  0  0  0  0  0  0  0  0  0  0  0
    0.9291    7.0633   13.1936 C   0  0  0  0  0  0  0  0  0  0  0  0
    1.7845    5.9167   13.7003 C   0  0  0  0  0  0  0  0  0  0  0  0
   -6.7237    8.7293   14.2128 N   0  0  0  0  0  0  0  0  0  0  0  0
    1.5217    2.8795   11.6869 N   0  0  0  0  0  0  0  0  0  0  0  0
   -1.2129    8.1226   13.4719 N   0  0  0  0  0  0  0  0  0  0  0  0
    1.3726    4.6426   13.1225 N   0  0  0  0  0  0  0  0  0  0  0  0
   -0.9776    5.9634   14.1964 O   0  0  0  0  0  0  0  0  0  0  0  0
    3.1137    4.4941   11.6766 O   0  0  0  0  0  0  0  0  0  0  0  0
   -5.6897    7.2369   16.0743 S   0  0  0  0  0  0  0  0  0  0  0  0
    0.5456    4.2028   13.4726 H   0  0  0  0  0  0  0  0  0  0  0  0
   -0.6925    8.9019   13.1228 H   0  0  0  0  0  0  0  0  0  0  0  0
    0.6436    2.5788   12.0591 H   0  0  0  0  0  0  0  0  0  0  0  0
    2.8337    6.1081   13.4309 H   0  0  0  0  0  0  0  0  0  0  0  0
    1.6916    5.8588   14.7948 H   0  0  0  0  0  0  0  0  0  0  0  0
    0.9324    7.0444   12.0938 H   0  0  0  0  0  0  0  0  0  0  0  0
    1.3661    8.0095   13.5454 H   0  0  0  0  0  0  0  0  0  0  0  0
   -8.7318    6.9471   15.9714 H   0  0  0  0  0  0  0  0  0  0  0  0
   -8.3749    8.4321   16.9170 H   0  0  0  0  0  0  0  0  0  0  0  0
   -9.1113    8.5626   15.2839 H   0  0  0  0  0  0  0  0  0  0  0  0
   -2.7060    7.0922   15.4451 H   0  0  0  0  0  0  0  0  0  0  0  0
    3.1634    2.4952   10.4423 H   0  0  0  0  0  0  0  0  0  0  0  0
    2.3209    1.0409   11.0765 H   0  0  0  0  0  0  0  0  0  0  0  0
   -2.7785    9.6858   12.0138 H   0  0  0  0  0  0  0  0  0  0  0  0
   -5.2275    9.9213   12.2093 H   0  0  0  0  0  0  0  0  0  0  0  0
    0.4043    1.5161    9.6201 H   0  0  0  0  0  0  0  0  0  0  0  0
    1.2468    2.9703    8.9859 H   0  0  0  0  0  0  0  0  0  0  0  0
    1.9236    1.3350    8.6791 H   0  0  0  0  0  0  0  0  0  0  0  0
 21  9  1  0  0  0  0
 21  8  1  0  0  0  0
  8  6  2  0  0  0  0
  8  5  1  0  0  0  0
  5  7  2  0  0  0  0
  7 17  1  0  0  0  0
  7  3  1  0  0  0  0
  3  2  2  0  0  0  0
  2  6  1  0  0  0  0
  6 15  1  0  0  0  0
 15  9  2  0  0  0  0
  9 12  1  0  0  0  0
 17 10  1  0  0  0  0
 10 19  2  0  0  0  0
 10 13  1  0  0  0  0
 13 14  1  0  0  0  0
 14 18  1  0  0  0  0
 18 11  1  0  0  0  0
 11 20  2  0  0  0  0
 11 16  1  0  0  0  0
 16  4  1  0  0  0  0
  4  1  1  0  0  0  0
  1 39  1  0  0  0  0
  1 38  1  0  0  0  0
  1 37  1  0  0  0  0
  2 36  1  0  0  0  0
  3 35  1  0  0  0  0
  4 34  1  0  0  0  0
  4 33  1  0  0  0  0
  5 32  1  0  0  0  0
 12 31  1  0  0  0  0
 12 30  1  0  0  0  0
 12 29  1  0  0  0  0
 13 28  1  0  0  0  0
 13 27  1  0  0  0  0
 14 26  1  0  0  0  0
 14 25  1  0  0  0  0
 16 24  1  0  0  0  0
 17 23  1  0  0  0  0
 18 22  1  0  0  0  0
M  END
>  <EXTREG>  (LDHA24)
LDHA24

$$$$
LDHA25
  -MTS-   06061610263D 0   0.00000     0.00000     0

 26 26  0  0  0  0  0  0  0  0999 V2000
    1.4375    1.4917    9.2700 C   0  0  0  0  0  0  0  0  0  0  0  0
    2.1617    0.3193    9.6210 O   0  0  0  0  0  0  0  0  0  0  0  0
    2.9012   -0.2914    8.6434 C   0  0  0  0  0  0  0  0  0  0  0  0
    2.3883   -0.7646    7.4449 C   0  0  0  0  0  0  0  0  0  0  0  0
    3.2304   -1.3908    6.5137 C   0  0  0  0  0  0  0  0  0  0  0  0
    4.5883   -1.5309    6.7784 C   0  0  0  0  0  0  0  0  0  0  0  0
    5.0871   -1.0699    7.9885 C   0  0  0  0  0  0  0  0  0  0  0  0
    4.2727   -0.4456    8.9117 C   0  0  0  0  0  0  0  0  0  0  0  0
    5.5073   -2.2325    5.8337 C   0  0  0  0  0  0  0  0  0  0  0  0
    5.8775   -3.6501    6.2992 C   0  0  0  0  0  0  0  0  0  0  0  0
    4.6674   -4.5497    6.2805 C   0  0  0  0  0  0  0  0  0  0  0  0
    3.8314   -4.4612    5.4278 O   0  0  0  0  0  0  0  0  0  0  0  0
    4.6271   -5.4422    7.2519 O   0  0  0  0  0  0  0  0  0  0  0  0
    6.9540   -4.2513    5.4360 C   0  0  0  0  0  0  0  0  0  0  0  0
    6.7075   -5.1793    4.6785 O   0  0  0  0  0  0  0  0  0  0  0  0
    8.1534   -3.6591    5.5544 O   0  0  0  0  0  0  0  0  0  0  0  0
    6.2527   -3.5859    7.3312 H   0  0  0  0  0  0  0  0  0  0  0  0
    6.4306   -1.6421    5.7391 H   0  0  0  0  0  0  0  0  0  0  0  0
    5.0148   -2.3029    4.8526 H   0  0  0  0  0  0  0  0  0  0  0  0
    6.1391   -1.2029    8.2136 H   0  0  0  0  0  0  0  0  0  0  0  0
    2.8205   -1.7672    5.5834 H   0  0  0  0  0  0  0  0  0  0  0  0
    1.3327   -0.6502    7.2268 H   0  0  0  0  0  0  0  0  0  0  0  0
    2.1374    2.2625    8.9150 H   0  0  0  0  0  0  0  0  0  0  0  0
    0.7187    1.2536    8.4721 H   0  0  0  0  0  0  0  0  0  0  0  0
    0.8962    1.8659   10.1514 H   0  0  0  0  0  0  0  0  0  0  0  0
    4.6895   -0.0751    9.8413 H   0  0  0  0  0  0  0  0  0  0  0  0
 16 14  1  0  0  0  0
 14 15  2  0  0  0  0
 14 10  1  0  0  0  0
 10 11  1  0  0  0  0
 10  9  1  0  0  0  0
  9  6  1  0  0  0  0
  6  7  1  0  0  0  0
  6  5  2  0  0  0  0
  5  4  1  0  0  0  0
  4  3  2  0  0  0  0
  3  8  1  0  0  0  0
  3  2  1  0  0  0  0
  2  1  1  0  0  0  0
  8 26  1  0  0  0  0
  8  7  2  0  0  0  0
 11 13  1  0  0  0  0
 11 12  2  0  0  0  0
  1 25  1  0  0  0  0
  1 24  1  0  0  0  0
  1 23  1  0  0  0  0
  4 22  1  0  0  0  0
  5 21  1  0  0  0  0
  7 20  1  0  0  0  0
  9 19  1  0  0  0  0
  9 18  1  0  0  0  0
 10 17  1  0  0  0  0
M  END
>  <EXTREG>  (LDHA25)
LDHA25

$$$$
LDHA26
  -MTS-   06061610263D 0   0.00000     0.00000     0

 60 62  0  0  0  0  0  0  0  0999 V2000
    3.9303   -0.3675    8.8534 C   0  0  0  0  0  0  0  0  0  0  0  0
    2.2611   -0.7081    7.1697 C   0  0  0  0  0  0  0  0  0  0  0  0
    4.8414   -1.0668    8.0838 C   0  0  0  0  0  0  0  0  0  0  0  0
    3.1727   -1.4372    6.4287 C   0  0  0  0  0  0  0  0  0  0  0  0
   -4.5633    9.2735   12.9955 C   0  0  0  0  0  0  0  0  0  0  0  0
   -3.2013    9.0827   12.8443 C   0  0  0  0  0  0  0  0  0  0  0  0
   -3.1603    7.6336   14.7672 C   0  0  0  0  0  0  0  0  0  0  0  0
    4.4761   -1.6022    6.8588 C   0  0  0  0  0  0  0  0  0  0  0  0
   -5.2465    8.6441   14.0370 C   0  0  0  0  0  0  0  0  0  0  0  0
    2.6479   -0.1649    8.3780 C   0  0  0  0  0  0  0  0  0  0  0  0
   -2.4990    8.2557   13.7139 C   0  0  0  0  0  0  0  0  0  0  0  0
   -4.5242    7.8309   14.9112 C   0  0  0  0  0  0  0  0  0  0  0  0
   -6.9160    8.0055   15.3675 C   0  0  0  0  0  0  0  0  0  0  0  0
   -0.4194    6.8978   13.6203 C   0  0  0  0  0  0  0  0  0  0  0  0
    4.9924   -4.4082    7.5887 C   0  0  0  0  0  0  0  0  0  0  0  0
    6.8910   -4.4994    5.9793 C   0  0  0  0  0  0  0  0  0  0  0  0
    1.9178    4.0181   12.2368 C   0  0  0  0  0  0  0  0  0  0  0  0
   -8.3129    7.8806   15.9022 C   0  0  0  0  0  0  0  0  0  0  0  0
    2.1390    1.0829   10.3773 C   0  0  0  0  0  0  0  0  0  0  0  0
    5.4422   -2.4361    6.0572 C   0  0  0  0  0  0  0  0  0  0  0  0
    1.0081    6.9912   13.1439 C   0  0  0  0  0  0  0  0  0  0  0  0
    1.2604    2.2627   10.6547 C   0  0  0  0  0  0  0  0  0  0  0  0
    1.8903    5.9362   13.7663 C   0  0  0  0  0  0  0  0  0  0  0  0
    6.0528   -3.6029    6.8603 C   0  0  0  0  0  0  0  0  0  0  0  0
   -6.6093    8.7380   14.3218 N   0  0  0  0  0  0  0  0  0  0  0  0
   -1.1072    8.0600   13.5534 N   0  0  0  0  0  0  0  0  0  0  0  0
    1.4440    2.7825   12.0039 N   0  0  0  0  0  0  0  0  0  0  0  0
    1.4894    4.5920   13.3728 N   0  0  0  0  0  0  0  0  0  0  0  0
   -0.8940    5.8456   14.0393 O   0  0  0  0  0  0  0  0  0  0  0  0
    5.1159   -4.6996    8.7679 O   0  0  0  0  0  0  0  0  0  0  0  0
    6.4476   -5.4969    5.4329 O   0  0  0  0  0  0  0  0  0  0  0  0
    2.7274    4.5638   11.4876 O   0  0  0  0  0  0  0  0  0  0  0  0
    3.9695   -4.7502    6.8690 O   0  0  0  0  0  0  0  0  0  0  0  0
    8.1089   -4.0709    5.8476 O   0  0  0  0  0  0  0  0  0  0  0  0
    1.7272    0.5333    9.1206 O   0  0  0  0  0  0  0  0  0  0  0  0
   -5.5894    7.1894   16.1265 S   0  0  0  0  0  0  0  0  0  0  0  0
    0.8732    4.0784   13.9699 H   0  0  0  0  0  0  0  0  0  0  0  0
    1.2095    2.2001   12.7823 H   0  0  0  0  0  0  0  0  0  0  0  0
   -0.5665    8.8806   13.3680 H   0  0  0  0  0  0  0  0  0  0  0  0
    6.7175   -3.1664    7.6203 H   0  0  0  0  0  0  0  0  0  0  0  0
    2.9286    6.1060   13.4452 H   0  0  0  0  0  0  0  0  0  0  0  0
    1.8268    6.0201   14.8612 H   0  0  0  0  0  0  0  0  0  0  0  0
    0.2104    1.9586   10.5323 H   0  0  0  0  0  0  0  0  0  0  0  0
    1.4981    3.0584    9.9334 H   0  0  0  0  0  0  0  0  0  0  0  0
    1.0251    6.8667   12.0511 H   0  0  0  0  0  0  0  0  0  0  0  0
    1.4043    7.9833   13.4062 H   0  0  0  0  0  0  0  0  0  0  0  0
    4.9087   -2.8511    5.1894 H   0  0  0  0  0  0  0  0  0  0  0  0
    6.2590   -1.7866    5.7093 H   0  0  0  0  0  0  0  0  0  0  0  0
    3.1906    1.4008   10.3229 H   0  0  0  0  0  0  0  0  0  0  0  0
    2.0236    0.3320   11.1728 H   0  0  0  0  0  0  0  0  0  0  0  0
   -8.6199    6.8244   15.8830 H   0  0  0  0  0  0  0  0  0  0  0  0
   -8.3442    8.2527   16.9369 H   0  0  0  0  0  0  0  0  0  0  0  0
   -8.9986    8.4730   15.2786 H   0  0  0  0  0  0  0  0  0  0  0  0
   -2.6179    7.0048   15.4640 H   0  0  0  0  0  0  0  0  0  0  0  0
   -2.6760    9.5834   12.0391 H   0  0  0  0  0  0  0  0  0  0  0  0
   -5.1004    9.9127   12.3041 H   0  0  0  0  0  0  0  0  0  0  0  0
    2.8597   -1.8875    5.4937 H   0  0  0  0  0  0  0  0  0  0  0  0
    5.8555   -1.1981    8.4435 H   0  0  0  0  0  0  0  0  0  0  0  0
    1.2506   -0.5643    6.8045 H   0  0  0  0  0  0  0  0  0  0  0  0
    4.2196    0.0196    9.8237 H   0  0  0  0  0  0  0  0  0  0  0  0
 36 13  1  0  0  0  0
 36 12  1  0  0  0  0
 12  9  2  0  0  0  0
 12  7  1  0  0  0  0
  7 11  2  0  0  0  0
 11 26  1  0  0  0  0
 11  6  1  0  0  0  0
  6  5  2  0  0  0  0
  5  9  1  0  0  0  0
  9 25  1  0  0  0  0
 25 13  2  0  0  0  0
 13 18  1  0  0  0  0
 26 14  1  0  0  0  0
 14 29  2  0  0  0  0
 14 21  1  0  0  0  0
 21 23  1  0  0  0  0
 23 28  1  0  0  0  0
 28 17  1  0  0  0  0
 17 32  2  0  0  0  0
 17 27  1  0  0  0  0
 27 22  1  0  0  0  0
 22 19  1  0  0  0  0
 19 35  1  0  0  0  0
 35 10  1  0  0  0  0
 10  2  2  0  0  0  0
 10  1  1  0  0  0  0
  1  3  2  0  0  0  0
  3  8  1  0  0  0  0
  8 20  1  0  0  0  0
  8  4  2  0  0  0  0
  4  2  1  0  0  0  0
 20 24  1  0  0  0  0
 24 16  1  0  0  0  0
 24 15  1  0  0  0  0
 15 33  1  0  0  0  0
 15 30  2  0  0  0  0
 16 34  1  0  0  0  0
 16 31  2  0  0  0  0
  1 60  1  0  0  0  0
  2 59  1  0  0  0  0
  3 58  1  0  0  0  0
  4 57  1  0  0  0  0
  5 56  1  0  0  0  0
  6 55  1  0  0  0  0
  7 54  1  0  0  0  0
 18 53  1  0  0  0  0
 18 52  1  0  0  0  0
 18 51  1  0  0  0  0
 19 50  1  0  0  0  0
 19 49  1  0  0  0  0
 20 48  1  0  0  0  0
 20 47  1  0  0  0  0
 21 46  1  0  0  0  0
 21 45  1  0  0  0  0
 22 44  1  0  0  0  0
 22 43  1  0  0  0  0
 23 42  1  0  0  0  0
 23 41  1  0  0  0  0
 24 40  1  0  0  0  0
 26 39  1  0  0  0  0
 27 38  1  0  0  0  0
 28 37  1  0  0  0  0
M  END
>  <EXTREG>  (LDHA26)
LDHA26

$$$$
LDHA27
  -MTS-   06061610263D 0   0.00000     0.00000     0

 67 69  0  0  0  0  0  0  0  0999 V2000
    3.9303   -0.3675    8.8534 C   0  0  0  0  0  0  0  0  0  0  0  0
    2.2611   -0.7081    7.1697 C   0  0  0  0  0  0  0  0  0  0  0  0
    4.8414   -1.0668    8.0838 C   0  0  0  0  0  0  0  0  0  0  0  0
    3.1727   -1.4372    6.4287 C   0  0  0  0  0  0  0  0  0  0  0  0
   -4.5633    9.2735   12.9955 C   0  0  0  0  0  0  0  0  0  0  0  0
   -3.2013    9.0827   12.8443 C   0  0  0  0  0  0  0  0  0  0  0  0
   -3.1603    7.6336   14.7672 C   0  0  0  0  0  0  0  0  0  0  0  0
    4.4761   -1.6022    6.8588 C   0  0  0  0  0  0  0  0  0  0  0  0
   -5.2465    8.6441   14.0370 C   0  0  0  0  0  0  0  0  0  0  0  0
    2.6479   -0.1649    8.3780 C   0  0  0  0  0  0  0  0  0  0  0  0
   -2.4990    8.2557   13.7139 C   0  0  0  0  0  0  0  0  0  0  0  0
   -4.5242    7.8309   14.9112 C   0  0  0  0  0  0  0  0  0  0  0  0
   -6.9160    8.0055   15.3675 C   0  0  0  0  0  0  0  0  0  0  0  0
   -0.4194    6.8978   13.6203 C   0  0  0  0  0  0  0  0  0  0  0  0
    4.9924   -4.4082    7.5887 C   0  0  0  0  0  0  0  0  0  0  0  0
    6.8910   -4.4994    5.9793 C   0  0  0  0  0  0  0  0  0  0  0  0
    1.9178    4.0181   12.2368 C   0  0  0  0  0  0  0  0  0  0  0  0
   -8.9637    7.9677   20.2667 C   0  0  0  0  0  0  0  0  0  0  0  0
    2.1390    1.0829   10.3773 C   0  0  0  0  0  0  0  0  0  0  0  0
    5.4422   -2.4361    6.0572 C   0  0  0  0  0  0  0  0  0  0  0  0
    1.0081    6.9912   13.1439 C   0  0  0  0  0  0  0  0  0  0  0  0
    1.2604    2.2627   10.6547 C   0  0  0  0  0  0  0  0  0  0  0  0
    1.8903    5.9362   13.7663 C   0  0  0  0  0  0  0  0  0  0  0  0
    6.0528   -3.6029    6.8603 C   0  0  0  0  0  0  0  0  0  0  0  0
   -6.6093    8.7380   14.3218 N   0  0  0  0  0  0  0  0  0  0  0  0
   -1.1072    8.0600   13.5534 N   0  0  0  0  0  0  0  0  0  0  0  0
    1.4440    2.7825   12.0039 N   0  0  0  0  0  0  0  0  0  0  0  0
    1.4894    4.5920   13.3728 N   0  0  0  0  0  0  0  0  0  0  0  0
   -0.8940    5.8456   14.0393 O   0  0  0  0  0  0  0  0  0  0  0  0
    5.1159   -4.6996    8.7679 O   0  0  0  0  0  0  0  0  0  0  0  0
    6.4476   -5.4969    5.4329 O   0  0  0  0  0  0  0  0  0  0  0  0
    2.7274    4.5638   11.4876 O   0  0  0  0  0  0  0  0  0  0  0  0
    3.9695   -4.7502    6.8690 O   0  0  0  0  0  0  0  0  0  0  0  0
    8.1089   -4.0709    5.8476 O   0  0  0  0  0  0  0  0  0  0  0  0
    1.7272    0.5333    9.1206 O   0  0  0  0  0  0  0  0  0  0  0  0
   -5.5894    7.1894   16.1265 S   0  0  0  0  0  0  0  0  0  0  0  0
   -8.4219    8.2797   18.8597 C   0  0  0  0  0  0  0  0  0  0  0  0
   -8.3044    7.2328   17.7363 C   0  0  0  0  0  0  0  0  0  0  0  0
   -8.5540    7.9016   16.0658 S   0  0  0  0  0  0  0  0  0  0  0  0
   -7.4057    8.6725   19.0107 H   0  0  0  0  0  0  0  0  0  0  0  0
   -9.0667    9.0762   18.4605 H   0  0  0  0  0  0  0  0  0  0  0  0
   -9.0592    6.4521   17.9116 H   0  0  0  0  0  0  0  0  0  0  0  0
   -7.2997    6.7882   17.7830 H   0  0  0  0  0  0  0  0  0  0  0  0
   -9.9976    7.6010   20.1885 H   0  0  0  0  0  0  0  0  0  0  0  0
   -8.3366    7.1972   20.7386 H   0  0  0  0  0  0  0  0  0  0  0  0
   -8.9440    8.8821   20.8781 H   0  0  0  0  0  0  0  0  0  0  0  0
    0.8732    4.0784   13.9699 H   0  0  0  0  0  0  0  0  0  0  0  0
    1.2095    2.2001   12.7823 H   0  0  0  0  0  0  0  0  0  0  0  0
   -0.5665    8.8806   13.3680 H   0  0  0  0  0  0  0  0  0  0  0  0
    6.7175   -3.1664    7.6203 H   0  0  0  0  0  0  0  0  0  0  0  0
    2.9286    6.1060   13.4452 H   0  0  0  0  0  0  0  0  0  0  0  0
    1.8268    6.0201   14.8612 H   0  0  0  0  0  0  0  0  0  0  0  0
    0.2104    1.9586   10.5323 H   0  0  0  0  0  0  0  0  0  0  0  0
    1.4981    3.0584    9.9334 H   0  0  0  0  0  0  0  0  0  0  0  0
    1.0251    6.8667   12.0511 H   0  0  0  0  0  0  0  0  0  0  0  0
    1.4043    7.9833   13.4062 H   0  0  0  0  0  0  0  0  0  0  0  0
    4.9087   -2.8511    5.1894 H   0  0  0  0  0  0  0  0  0  0  0  0
    6.2590   -1.7866    5.7093 H   0  0  0  0  0  0  0  0  0  0  0  0
    3.1906    1.4008   10.3229 H   0  0  0  0  0  0  0  0  0  0  0  0
    2.0236    0.3320   11.1728 H   0  0  0  0  0  0  0  0  0  0  0  0
   -2.6179    7.0048   15.4640 H   0  0  0  0  0  0  0  0  0  0  0  0
   -2.6760    9.5834   12.0391 H   0  0  0  0  0  0  0  0  0  0  0  0
   -5.1004    9.9127   12.3041 H   0  0  0  0  0  0  0  0  0  0  0  0
    2.8597   -1.8875    5.4937 H   0  0  0  0  0  0  0  0  0  0  0  0
    5.8555   -1.1981    8.4435 H   0  0  0  0  0  0  0  0  0  0  0  0
    1.2506   -0.5643    6.8045 H   0  0  0  0  0  0  0  0  0  0  0  0
    4.2196    0.0196    9.8237 H   0  0  0  0  0  0  0  0  0  0  0  0
 13 36  1  0  0  0  0
 36 12  1  0  0  0  0
  9 12  2  0  0  0  0
 12  7  1  0  0  0  0
  7 11  2  0  0  0  0
 11 26  1  0  0  0  0
  6 11  1  0  0  0  0
  5  6  2  0  0  0  0
  9  5  1  0  0  0  0
 25  9  1  0  0  0  0
 13 25  2  0  0  0  0
 39 38  1  0  0  0  0
 26 14  1  0  0  0  0
 14 29  2  0  0  0  0
 14 21  1  0  0  0  0
 21 23  1  0  0  0  0
 23 28  1  0  0  0  0
 28 17  1  0  0  0  0
 17 32  2  0  0  0  0
 17 27  1  0  0  0  0
 27 22  1  0  0  0  0
 22 19  1  0  0  0  0
 19 35  1  0  0  0  0
 35 10  1  0  0  0  0
 10  2  2  0  0  0  0
 10  1  1  0  0  0  0
  1  3  2  0  0  0  0
  3  8  1  0  0  0  0
  8 20  1  0  0  0  0
  4  8  2  0  0  0  0
  2  4  1  0  0  0  0
 20 24  1  0  0  0  0
 24 16  1  0  0  0  0
 24 15  1  0  0  0  0
 15 33  1  0  0  0  0
 15 30  2  0  0  0  0
 16 34  1  0  0  0  0
 16 31  2  0  0  0  0
  1 67  1  0  0  0  0
  2 66  1  0  0  0  0
  3 65  1  0  0  0  0
  4 64  1  0  0  0  0
  5 63  1  0  0  0  0
  6 62  1  0  0  0  0
  7 61  1  0  0  0  0
 38 42  1  0  0  0  0
 38 43  1  0  0  0  0
 38 37  1  0  0  0  0
 19 60  1  0  0  0  0
 19 59  1  0  0  0  0
 20 58  1  0  0  0  0
 20 57  1  0  0  0  0
 21 56  1  0  0  0  0
 21 55  1  0  0  0  0
 22 54  1  0  0  0  0
 22 53  1  0  0  0  0
 23 52  1  0  0  0  0
 23 51  1  0  0  0  0
 24 50  1  0  0  0  0
 26 49  1  0  0  0  0
 27 48  1  0  0  0  0
 28 47  1  0  0  0  0
 37 40  1  0  0  0  0
 37 41  1  0  0  0  0
 37 18  1  0  0  0  0
 18 44  1  0  0  0  0
 18 45  1  0  0  0  0
 18 46  1  0  0  0  0
 13 39  1  0  0  0  0
M  END
>  <EXTREG>  (LDHA27)
LDHA27

$$$$
LDHA28
  -MTS-   06061610263D 0   0.00000     0.00000     0

 58 60  0  0  0  0  0  0  0  0999 V2000
    3.9303   -0.3675    8.8534 C   0  0  0  0  0  0  0  0  0  0  0  0
    2.2611   -0.7081    7.1697 C   0  0  0  0  0  0  0  0  0  0  0  0
    4.8414   -1.0668    8.0838 C   0  0  0  0  0  0  0  0  0  0  0  0
    3.1727   -1.4372    6.4287 C   0  0  0  0  0  0  0  0  0  0  0  0
   -4.5633    9.2735   12.9955 C   0  0  0  0  0  0  0  0  0  0  0  0
   -3.2013    9.0827   12.8443 C   0  0  0  0  0  0  0  0  0  0  0  0
   -3.1603    7.6336   14.7672 C   0  0  0  0  0  0  0  0  0  0  0  0
    4.4761   -1.6022    6.8588 C   0  0  0  0  0  0  0  0  0  0  0  0
   -5.2465    8.6441   14.0370 C   0  0  0  0  0  0  0  0  0  0  0  0
    2.6479   -0.1649    8.3780 C   0  0  0  0  0  0  0  0  0  0  0  0
   -2.4990    8.2557   13.7139 C   0  0  0  0  0  0  0  0  0  0  0  0
   -4.5242    7.8309   14.9112 C   0  0  0  0  0  0  0  0  0  0  0  0
   -6.9160    8.0055   15.3675 C   0  0  0  0  0  0  0  0  0  0  0  0
   -0.4194    6.8978   13.6203 C   0  0  0  0  0  0  0  0  0  0  0  0
    6.8846   -4.4917    5.9837 C   0  0  0  0  0  0  0  0  0  0  0  0
    1.9178    4.0181   12.2368 C   0  0  0  0  0  0  0  0  0  0  0  0
   -8.3129    7.8806   15.9022 C   0  0  0  0  0  0  0  0  0  0  0  0
    2.1390    1.0829   10.3773 C   0  0  0  0  0  0  0  0  0  0  0  0
    5.4422   -2.4361    6.0572 C   0  0  0  0  0  0  0  0  0  0  0  0
    1.0081    6.9912   13.1439 C   0  0  0  0  0  0  0  0  0  0  0  0
    1.2604    2.2627   10.6547 C   0  0  0  0  0  0  0  0  0  0  0  0
    1.8903    5.9362   13.7663 C   0  0  0  0  0  0  0  0  0  0  0  0
    6.0518   -3.6010    6.8590 C   0  0  0  0  0  0  0  0  0  0  0  0
   -6.6093    8.7380   14.3218 N   0  0  0  0  0  0  0  0  0  0  0  0
   -1.1072    8.0600   13.5534 N   0  0  0  0  0  0  0  0  0  0  0  0
    1.4440    2.7825   12.0039 N   0  0  0  0  0  0  0  0  0  0  0  0
    1.4894    4.5920   13.3728 N   0  0  0  0  0  0  0  0  0  0  0  0
   -0.8940    5.8456   14.0393 O   0  0  0  0  0  0  0  0  0  0  0  0
    6.4412   -5.4892    5.4373 O   0  0  0  0  0  0  0  0  0  0  0  0
    2.7274    4.5638   11.4876 O   0  0  0  0  0  0  0  0  0  0  0  0
    8.1025   -4.0632    5.8520 O   0  0  0  0  0  0  0  0  0  0  0  0
    1.7272    0.5333    9.1206 O   0  0  0  0  0  0  0  0  0  0  0  0
   -5.5894    7.1894   16.1265 S   0  0  0  0  0  0  0  0  0  0  0  0
    0.8732    4.0784   13.9699 H   0  0  0  0  0  0  0  0  0  0  0  0
    1.2095    2.2001   12.7823 H   0  0  0  0  0  0  0  0  0  0  0  0
   -0.5665    8.8806   13.3680 H   0  0  0  0  0  0  0  0  0  0  0  0
    2.9286    6.1060   13.4452 H   0  0  0  0  0  0  0  0  0  0  0  0
    1.8268    6.0201   14.8612 H   0  0  0  0  0  0  0  0  0  0  0  0
    0.2104    1.9586   10.5323 H   0  0  0  0  0  0  0  0  0  0  0  0
    1.4981    3.0584    9.9334 H   0  0  0  0  0  0  0  0  0  0  0  0
    1.0251    6.8667   12.0511 H   0  0  0  0  0  0  0  0  0  0  0  0
    1.4043    7.9833   13.4062 H   0  0  0  0  0  0  0  0  0  0  0  0
    4.9087   -2.8511    5.1894 H   0  0  0  0  0  0  0  0  0  0  0  0
    6.2590   -1.7866    5.7093 H   0  0  0  0  0  0  0  0  0  0  0  0
    3.1906    1.4008   10.3229 H   0  0  0  0  0  0  0  0  0  0  0  0
    2.0236    0.3320   11.1728 H   0  0  0  0  0  0  0  0  0  0  0  0
   -8.6199    6.8244   15.8830 H   0  0  0  0  0  0  0  0  0  0  0  0
   -8.3442    8.2527   16.9369 H   0  0  0  0  0  0  0  0  0  0  0  0
   -8.9986    8.4730   15.2786 H   0  0  0  0  0  0  0  0  0  0  0  0
   -2.6179    7.0048   15.4640 H   0  0  0  0  0  0  0  0  0  0  0  0
   -2.6760    9.5834   12.0391 H   0  0  0  0  0  0  0  0  0  0  0  0
   -5.1004    9.9127   12.3041 H   0  0  0  0  0  0  0  0  0  0  0  0
    2.8597   -1.8875    5.4937 H   0  0  0  0  0  0  0  0  0  0  0  0
    5.8555   -1.1981    8.4435 H   0  0  0  0  0  0  0  0  0  0  0  0
    1.2506   -0.5643    6.8045 H   0  0  0  0  0  0  0  0  0  0  0  0
    4.2196    0.0196    9.8237 H   0  0  0  0  0  0  0  0  0  0  0  0
    6.6858   -3.1916    7.6592 H   0  0  0  0  0  0  0  0  0  0  0  0
    5.2387   -4.1943    7.3027 H   0  0  0  0  0  0  0  0  0  0  0  0
 33 13  1  0  0  0  0
 33 12  1  0  0  0  0
 12  9  2  0  0  0  0
 12  7  1  0  0  0  0
  7 11  2  0  0  0  0
 11 25  1  0  0  0  0
 11  6  1  0  0  0  0
  6  5  2  0  0  0  0
  5  9  1  0  0  0  0
  9 24  1  0  0  0  0
 24 13  2  0  0  0  0
 13 17  1  0  0  0  0
 25 14  1  0  0  0  0
 14 28  2  0  0  0  0
 14 20  1  0  0  0  0
 20 22  1  0  0  0  0
 22 27  1  0  0  0  0
 27 16  1  0  0  0  0
 16 30  2  0  0  0  0
 16 26  1  0  0  0  0
 26 21  1  0  0  0  0
 21 18  1  0  0  0  0
 18 32  1  0  0  0  0
 32 10  1  0  0  0  0
 10  2  2  0  0  0  0
 10  1  1  0  0  0  0
  1  3  2  0  0  0  0
  3  8  1  0  0  0  0
  8 19  1  0  0  0  0
  8  4  2  0  0  0  0
  4  2  1  0  0  0  0
 19 23  1  0  0  0  0
 23 15  1  0  0  0  0
 23 58  1  0  0  0  0
 23 57  1  0  0  0  0
 15 31  1  0  0  0  0
 15 29  2  0  0  0  0
  1 56  1  0  0  0  0
  2 55  1  0  0  0  0
  3 54  1  0  0  0  0
  4 53  1  0  0  0  0
  5 52  1  0  0  0  0
  6 51  1  0  0  0  0
  7 50  1  0  0  0  0
 17 49  1  0  0  0  0
 17 48  1  0  0  0  0
 17 47  1  0  0  0  0
 18 46  1  0  0  0  0
 18 45  1  0  0  0  0
 19 44  1  0  0  0  0
 19 43  1  0  0  0  0
 20 42  1  0  0  0  0
 20 41  1  0  0  0  0
 21 40  1  0  0  0  0
 21 39  1  0  0  0  0
 22 38  1  0  0  0  0
 22 37  1  0  0  0  0
 25 36  1  0  0  0  0
 26 35  1  0  0  0  0
 27 34  1  0  0  0  0
M  END
>  <EXTREG>  (LDHA28)
LDHA28

$$$$
LDHA29
  -MTS-   06061610263D 0   0.00000     0.00000     0

 59 61  0  0  0  0  0  0  0  0999 V2000
    2.2747   -0.2961    7.8277 C   0  0  0  0  0  0  0  0  0  0  0  0
    4.0799   -0.3244    9.3687 C   0  0  0  0  0  0  0  0  0  0  0  0
    3.0369   -1.0087    6.9217 C   0  0  0  0  0  0  0  0  0  0  0  0
    4.8457   -1.0304    8.4582 C   0  0  0  0  0  0  0  0  0  0  0  0
   -4.5161    9.2572   12.9739 C   0  0  0  0  0  0  0  0  0  0  0  0
   -3.1573    9.0392   12.8342 C   0  0  0  0  0  0  0  0  0  0  0  0
   -3.1600    7.5868   14.7553 C   0  0  0  0  0  0  0  0  0  0  0  0
    2.7848    0.0599    9.0639 C   0  0  0  0  0  0  0  0  0  0  0  0
    4.3342   -1.3872    7.2227 C   0  0  0  0  0  0  0  0  0  0  0  0
   -5.2170    8.6361   14.0074 C   0  0  0  0  0  0  0  0  0  0  0  0
   -2.4764    8.2137   13.7192 C   0  0  0  0  0  0  0  0  0  0  0  0
   -4.5226    7.8036   14.8833 C   0  0  0  0  0  0  0  0  0  0  0  0
   -6.9143    8.0400   15.3132 C   0  0  0  0  0  0  0  0  0  0  0  0
   -0.4584    6.7923   13.5872 C   0  0  0  0  0  0  0  0  0  0  0  0
    6.6779   -4.1494    5.8017 C   0  0  0  0  0  0  0  0  0  0  0  0
    4.7742   -4.3921    7.3905 C   0  0  0  0  0  0  0  0  0  0  0  0
    2.1541    3.9843   11.9871 C   0  0  0  0  0  0  0  0  0  0  0  0
   -8.3308    7.9848   15.8066 C   0  0  0  0  0  0  0  0  0  0  0  0
    1.9291    0.8116   10.0598 C   0  0  0  0  0  0  0  0  0  0  0  0
    5.1581   -2.1692    6.2242 C   0  0  0  0  0  0  0  0  0  0  0  0
    0.9877    6.8149   13.1401 C   0  0  0  0  0  0  0  0  0  0  0  0
    2.4351    2.1986   10.3593 C   0  0  0  0  0  0  0  0  0  0  0  0
    1.8040    5.6851   13.7305 C   0  0  0  0  0  0  0  0  0  0  0  0
    5.8099   -3.4326    6.8244 C   0  0  0  0  0  0  0  0  0  0  0  0
   -6.5796    8.7588   14.2689 N   0  0  0  0  0  0  0  0  0  0  0  0
   -1.0866    7.9930   13.5611 N   0  0  0  0  0  0  0  0  0  0  0  0
    1.9241    2.7137   11.6232 N   0  0  0  0  0  0  0  0  0  0  0  0
    1.5267    4.3997   13.0984 N   0  0  0  0  0  0  0  0  0  0  0  0
   -0.9986    5.7556   13.9669 O   0  0  0  0  0  0  0  0  0  0  0  0
    6.2613   -5.0755    5.1265 O   0  0  0  0  0  0  0  0  0  0  0  0
    3.8511   -4.7896    6.7015 O   0  0  0  0  0  0  0  0  0  0  0  0
    2.9315    4.7016   11.3653 O   0  0  0  0  0  0  0  0  0  0  0  0
    7.9017   -3.7057    5.7487 O   0  0  0  0  0  0  0  0  0  0  0  0
    4.9499   -4.7321    8.6403 O   0  0  0  0  0  0  0  0  0  0  0  0
   -5.6233    7.1677   16.0718 S   0  0  0  0  0  0  0  0  0  0  0  0
    0.8392    3.8022   13.5112 H   0  0  0  0  0  0  0  0  0  0  0  0
    1.3968    2.1141   12.2252 H   0  0  0  0  0  0  0  0  0  0  0  0
   -0.5140    8.8000   13.4164 H   0  0  0  0  0  0  0  0  0  0  0  0
    6.4583   -3.1099    7.6523 H   0  0  0  0  0  0  0  0  0  0  0  0
    2.8714    5.9175   13.6016 H   0  0  0  0  0  0  0  0  0  0  0  0
    1.5726    5.6069   14.8030 H   0  0  0  0  0  0  0  0  0  0  0  0
    2.1195    2.8726    9.5493 H   0  0  0  0  0  0  0  0  0  0  0  0
    3.5337    2.1715   10.4068 H   0  0  0  0  0  0  0  0  0  0  0  0
    1.0175    6.7337   12.0435 H   0  0  0  0  0  0  0  0  0  0  0  0
    1.4359    7.7706   13.4493 H   0  0  0  0  0  0  0  0  0  0  0  0
    4.5032   -2.4750    5.3950 H   0  0  0  0  0  0  0  0  0  0  0  0
    5.9545   -1.5147    5.8404 H   0  0  0  0  0  0  0  0  0  0  0  0
    1.9039    0.2396   10.9990 H   0  0  0  0  0  0  0  0  0  0  0  0
    0.9105    0.8928    9.6525 H   0  0  0  0  0  0  0  0  0  0  0  0
   -8.6916    6.9463   15.7701 H   0  0  0  0  0  0  0  0  0  0  0  0
   -8.3727    8.3514   16.8429 H   0  0  0  0  0  0  0  0  0  0  0  0
   -8.9662    8.6164   15.1684 H   0  0  0  0  0  0  0  0  0  0  0  0
   -2.6364    6.9403   15.4502 H   0  0  0  0  0  0  0  0  0  0  0  0
   -2.6180    9.5181   12.0249 H   0  0  0  0  0  0  0  0  0  0  0  0
   -5.0353    9.9097   12.2813 H   0  0  0  0  0  0  0  0  0  0  0  0
    5.8612   -1.3082    8.7163 H   0  0  0  0  0  0  0  0  0  0  0  0
    2.6125   -1.2754    5.9605 H   0  0  0  0  0  0  0  0  0  0  0  0
    4.4997   -0.0683   10.3348 H   0  0  0  0  0  0  0  0  0  0  0  0
    1.2619   -0.0117    7.5661 H   0  0  0  0  0  0  0  0  0  0  0  0
 35 13  1  0  0  0  0
 35 12  1  0  0  0  0
 12 10  2  0  0  0  0
 12  7  1  0  0  0  0
  7 11  2  0  0  0  0
 11 26  1  0  0  0  0
 11  6  1  0  0  0  0
  6  5  2  0  0  0  0
  5 10  1  0  0  0  0
 10 25  1  0  0  0  0
 25 13  2  0  0  0  0
 13 18  1  0  0  0  0
 26 14  1  0  0  0  0
 14 29  2  0  0  0  0
 14 21  1  0  0  0  0
 21 23  1  0  0  0  0
 23 28  1  0  0  0  0
 28 17  1  0  0  0  0
 17 32  2  0  0  0  0
 17 27  1  0  0  0  0
 27 22  1  0  0  0  0
 22 19  1  0  0  0  0
 19  8  1  0  0  0  0
  8  2  2  0  0  0  0
  8  1  1  0  0  0  0
  1  3  2  0  0  0  0
  3  9  1  0  0  0  0
  9 20  1  0  0  0  0
  9  4  2  0  0  0  0
  4  2  1  0  0  0  0
 20 24  1  0  0  0  0
 24 16  1  0  0  0  0
 24 15  1  0  0  0  0
 15 33  1  0  0  0  0
 15 30  2  0  0  0  0
 16 34  1  0  0  0  0
 16 31  2  0  0  0  0
  1 59  1  0  0  0  0
  2 58  1  0  0  0  0
  3 57  1  0  0  0  0
  4 56  1  0  0  0  0
  5 55  1  0  0  0  0
  6 54  1  0  0  0  0
  7 53  1  0  0  0  0
 18 52  1  0  0  0  0
 18 51  1  0  0  0  0
 18 50  1  0  0  0  0
 19 49  1  0  0  0  0
 19 48  1  0  0  0  0
 20 47  1  0  0  0  0
 20 46  1  0  0  0  0
 21 45  1  0  0  0  0
 21 44  1  0  0  0  0
 22 43  1  0  0  0  0
 22 42  1  0  0  0  0
 23 41  1  0  0  0  0
 23 40  1  0  0  0  0
 24 39  1  0  0  0  0
 26 38  1  0  0  0  0
 27 37  1  0  0  0  0
 28 36  1  0  0  0  0
M  END
>  <EXTREG>  (LDHA29)
LDHA29

$$$$
LDHA30
  -MTS-   06061610263D 0   0.00000     0.00000     0

 57 59  0  0  0  0  0  0  0  0999 V2000
    2.2747   -0.2961    7.8277 C   0  0  0  0  0  0  0  0  0  0  0  0
    4.0799   -0.3244    9.3687 C   0  0  0  0  0  0  0  0  0  0  0  0
    3.0369   -1.0087    6.9217 C   0  0  0  0  0  0  0  0  0  0  0  0
    4.8457   -1.0304    8.4582 C   0  0  0  0  0  0  0  0  0  0  0  0
   -4.5161    9.2572   12.9739 C   0  0  0  0  0  0  0  0  0  0  0  0
   -3.1573    9.0392   12.8342 C   0  0  0  0  0  0  0  0  0  0  0  0
   -3.1600    7.5868   14.7553 C   0  0  0  0  0  0  0  0  0  0  0  0
    2.7848    0.0599    9.0639 C   0  0  0  0  0  0  0  0  0  0  0  0
    4.3342   -1.3872    7.2227 C   0  0  0  0  0  0  0  0  0  0  0  0
   -5.2170    8.6361   14.0074 C   0  0  0  0  0  0  0  0  0  0  0  0
   -2.4764    8.2137   13.7192 C   0  0  0  0  0  0  0  0  0  0  0  0
   -4.5226    7.8036   14.8833 C   0  0  0  0  0  0  0  0  0  0  0  0
   -6.9143    8.0400   15.3132 C   0  0  0  0  0  0  0  0  0  0  0  0
   -0.4584    6.7923   13.5872 C   0  0  0  0  0  0  0  0  0  0  0  0
    4.0866   -4.1699    6.5830 C   0  0  0  0  0  0  0  0  0  0  0  0
    5.7368   -3.7299    4.7343 C   0  0  0  0  0  0  0  0  0  0  0  0
    2.1541    3.9843   11.9871 C   0  0  0  0  0  0  0  0  0  0  0  0
   -8.3308    7.9848   15.8066 C   0  0  0  0  0  0  0  0  0  0  0  0
    1.9291    0.8116   10.0598 C   0  0  0  0  0  0  0  0  0  0  0  0
    4.6000   -3.1571    5.5718 C   0  0  0  0  0  0  0  0  0  0  0  0
    0.9877    6.8149   13.1401 C   0  0  0  0  0  0  0  0  0  0  0  0
    2.4351    2.1986   10.3593 C   0  0  0  0  0  0  0  0  0  0  0  0
    1.8040    5.6851   13.7305 C   0  0  0  0  0  0  0  0  0  0  0  0
    4.6929   -4.4262    7.6421 O   0  0  0  0  0  0  0  0  0  0  0  0
   -6.5796    8.7588   14.2689 N   0  0  0  0  0  0  0  0  0  0  0  0
   -1.0866    7.9930   13.5611 N   0  0  0  0  0  0  0  0  0  0  0  0
    1.9241    2.7137   11.6232 N   0  0  0  0  0  0  0  0  0  0  0  0
    1.5267    4.3997   13.0984 N   0  0  0  0  0  0  0  0  0  0  0  0
   -0.9986    5.7556   13.9669 O   0  0  0  0  0  0  0  0  0  0  0  0
    5.5602   -4.5423    3.8357 O   0  0  0  0  0  0  0  0  0  0  0  0
    2.9554   -4.6815    6.2248 O   0  0  0  0  0  0  0  0  0  0  0  0
    2.9315    4.7016   11.3653 O   0  0  0  0  0  0  0  0  0  0  0  0
    6.8974   -3.2712    5.0796 O   0  0  0  0  0  0  0  0  0  0  0  0
    5.1218   -2.0328    6.3294 O   0  0  0  0  0  0  0  0  0  0  0  0
   -5.6233    7.1677   16.0718 S   0  0  0  0  0  0  0  0  0  0  0  0
    0.8392    3.8022   13.5112 H   0  0  0  0  0  0  0  0  0  0  0  0
    1.3968    2.1141   12.2252 H   0  0  0  0  0  0  0  0  0  0  0  0
   -0.5140    8.8000   13.4164 H   0  0  0  0  0  0  0  0  0  0  0  0
    2.8714    5.9175   13.6016 H   0  0  0  0  0  0  0  0  0  0  0  0
    1.5726    5.6069   14.8030 H   0  0  0  0  0  0  0  0  0  0  0  0
    2.1195    2.8726    9.5493 H   0  0  0  0  0  0  0  0  0  0  0  0
    3.5337    2.1715   10.4068 H   0  0  0  0  0  0  0  0  0  0  0  0
    1.0175    6.7337   12.0435 H   0  0  0  0  0  0  0  0  0  0  0  0
    1.4359    7.7706   13.4493 H   0  0  0  0  0  0  0  0  0  0  0  0
    3.7796   -2.8347    4.9136 H   0  0  0  0  0  0  0  0  0  0  0  0
    1.9039    0.2396   10.9990 H   0  0  0  0  0  0  0  0  0  0  0  0
    0.9105    0.8928    9.6525 H   0  0  0  0  0  0  0  0  0  0  0  0
   -8.6916    6.9463   15.7701 H   0  0  0  0  0  0  0  0  0  0  0  0
   -8.3727    8.3514   16.8429 H   0  0  0  0  0  0  0  0  0  0  0  0
   -8.9662    8.6164   15.1684 H   0  0  0  0  0  0  0  0  0  0  0  0
   -2.6364    6.9403   15.4502 H   0  0  0  0  0  0  0  0  0  0  0  0
   -2.6180    9.5181   12.0249 H   0  0  0  0  0  0  0  0  0  0  0  0
   -5.0353    9.9097   12.2813 H   0  0  0  0  0  0  0  0  0  0  0  0
    5.8612   -1.3082    8.7163 H   0  0  0  0  0  0  0  0  0  0  0  0
    2.6125   -1.2754    5.9605 H   0  0  0  0  0  0  0  0  0  0  0  0
    4.4997   -0.0683   10.3348 H   0  0  0  0  0  0  0  0  0  0  0  0
    1.2619   -0.0117    7.5661 H   0  0  0  0  0  0  0  0  0  0  0  0
 35 13  1  0  0  0  0
 12 35  1  0  0  0  0
 12 10  2  0  0  0  0
  7 12  1  0  0  0  0
 11  7  2  0  0  0  0
 26 11  1  0  0  0  0
 11  6  1  0  0  0  0
  6  5  2  0  0  0  0
  5 10  1  0  0  0  0
 10 25  1  0  0  0  0
 25 13  2  0  0  0  0
 13 18  1  0  0  0  0
 14 26  1  0  0  0  0
 14 29  2  0  0  0  0
 21 14  1  0  0  0  0
 23 21  1  0  0  0  0
 28 23  1  0  0  0  0
 17 28  1  0  0  0  0
 17 32  2  0  0  0  0
 27 17  1  0  0  0  0
 22 27  1  0  0  0  0
 19 22  1  0  0  0  0
  8 19  1  0  0  0  0
  2  8  2  0  0  0  0
  1  8  1  0  0  0  0
  3  1  2  0  0  0  0
  9  3  1  0  0  0  0
 34 20  1  0  0  0  0
  9  4  2  0  0  0  0
  4  2  1  0  0  0  0
 20 45  1  0  0  0  0
 20 15  1  0  0  0  0
 20 16  1  0  0  0  0
 16 30  2  0  0  0  0
 16 33  1  0  0  0  0
 15 24  2  0  0  0  0
 15 31  1  0  0  0  0
  1 57  1  0  0  0  0
  2 56  1  0  0  0  0
  3 55  1  0  0  0  0
  4 54  1  0  0  0  0
  5 53  1  0  0  0  0
  6 52  1  0  0  0  0
  7 51  1  0  0  0  0
 18 50  1  0  0  0  0
 18 49  1  0  0  0  0
 18 48  1  0  0  0  0
 19 47  1  0  0  0  0
 19 46  1  0  0  0  0
  9 34  1  0  0  0  0
 21 44  1  0  0  0  0
 21 43  1  0  0  0  0
 22 42  1  0  0  0  0
 22 41  1  0  0  0  0
 23 40  1  0  0  0  0
 23 39  1  0  0  0  0
 26 38  1  0  0  0  0
 27 37  1  0  0  0  0
 28 36  1  0  0  0  0
M  END
>  <EXTREG>  (LDHA30)
LDHA30

$$$$
LDHA31
  -MTS-   06061610263D 0   0.00000     0.00000     0

 66 68  0  0  0  0  0  0  0  0999 V2000
    2.2747   -0.2961    7.8277 C   0  0  0  0  0  0  0  0  0  0  0  0
    4.0799   -0.3244    9.3687 C   0  0  0  0  0  0  0  0  0  0  0  0
    3.0369   -1.0087    6.9217 C   0  0  0  0  0  0  0  0  0  0  0  0
    4.8457   -1.0304    8.4582 C   0  0  0  0  0  0  0  0  0  0  0  0
   -4.5161    9.2572   12.9739 C   0  0  0  0  0  0  0  0  0  0  0  0
   -3.1573    9.0392   12.8342 C   0  0  0  0  0  0  0  0  0  0  0  0
   -3.1600    7.5868   14.7553 C   0  0  0  0  0  0  0  0  0  0  0  0
    2.7848    0.0599    9.0639 C   0  0  0  0  0  0  0  0  0  0  0  0
    4.3342   -1.3872    7.2227 C   0  0  0  0  0  0  0  0  0  0  0  0
   -5.2170    8.6361   14.0074 C   0  0  0  0  0  0  0  0  0  0  0  0
   -2.4764    8.2137   13.7192 C   0  0  0  0  0  0  0  0  0  0  0  0
   -4.5226    7.8036   14.8833 C   0  0  0  0  0  0  0  0  0  0  0  0
   -6.9143    8.0400   15.3132 C   0  0  0  0  0  0  0  0  0  0  0  0
   -0.4584    6.7923   13.5872 C   0  0  0  0  0  0  0  0  0  0  0  0
    6.6779   -4.1494    5.8017 C   0  0  0  0  0  0  0  0  0  0  0  0
    4.7742   -4.3921    7.3905 C   0  0  0  0  0  0  0  0  0  0  0  0
    2.1541    3.9843   11.9871 C   0  0  0  0  0  0  0  0  0  0  0  0
   -9.0109    8.0736   20.1490 C   0  0  0  0  0  0  0  0  0  0  0  0
    1.9291    0.8116   10.0598 C   0  0  0  0  0  0  0  0  0  0  0  0
    5.1581   -2.1692    6.2242 C   0  0  0  0  0  0  0  0  0  0  0  0
    0.9877    6.8149   13.1401 C   0  0  0  0  0  0  0  0  0  0  0  0
    2.4351    2.1986   10.3593 C   0  0  0  0  0  0  0  0  0  0  0  0
    1.8040    5.6851   13.7305 C   0  0  0  0  0  0  0  0  0  0  0  0
    5.8099   -3.4326    6.8244 C   0  0  0  0  0  0  0  0  0  0  0  0
   -6.5796    8.7588   14.2689 N   0  0  0  0  0  0  0  0  0  0  0  0
   -1.0866    7.9930   13.5611 N   0  0  0  0  0  0  0  0  0  0  0  0
    1.9241    2.7137   11.6232 N   0  0  0  0  0  0  0  0  0  0  0  0
    1.5267    4.3997   13.0984 N   0  0  0  0  0  0  0  0  0  0  0  0
   -0.9986    5.7556   13.9669 O   0  0  0  0  0  0  0  0  0  0  0  0
    6.2613   -5.0755    5.1265 O   0  0  0  0  0  0  0  0  0  0  0  0
    3.8511   -4.7896    6.7015 O   0  0  0  0  0  0  0  0  0  0  0  0
    2.9315    4.7016   11.3653 O   0  0  0  0  0  0  0  0  0  0  0  0
    7.9017   -3.7057    5.7487 O   0  0  0  0  0  0  0  0  0  0  0  0
    4.9499   -4.7321    8.6403 O   0  0  0  0  0  0  0  0  0  0  0  0
   -5.6233    7.1677   16.0718 S   0  0  0  0  0  0  0  0  0  0  0  0
   -8.4691    8.3856   18.7420 C   0  0  0  0  0  0  0  0  0  0  0  0
   -8.3516    7.3387   17.6186 C   0  0  0  0  0  0  0  0  0  0  0  0
   -8.6012    8.0075   15.9481 S   0  0  0  0  0  0  0  0  0  0  0  0
   -7.4529    8.7784   18.8930 H   0  0  0  0  0  0  0  0  0  0  0  0
   -9.1139    9.1821   18.3428 H   0  0  0  0  0  0  0  0  0  0  0  0
   -9.1064    6.5580   17.7939 H   0  0  0  0  0  0  0  0  0  0  0  0
   -7.3469    6.8941   17.6653 H   0  0  0  0  0  0  0  0  0  0  0  0
  -10.0448    7.7069   20.0708 H   0  0  0  0  0  0  0  0  0  0  0  0
   -8.3838    7.3031   20.6209 H   0  0  0  0  0  0  0  0  0  0  0  0
   -8.9912    8.9880   20.7604 H   0  0  0  0  0  0  0  0  0  0  0  0
    0.8392    3.8022   13.5112 H   0  0  0  0  0  0  0  0  0  0  0  0
    1.3968    2.1141   12.2252 H   0  0  0  0  0  0  0  0  0  0  0  0
   -0.5140    8.8000   13.4164 H   0  0  0  0  0  0  0  0  0  0  0  0
    6.4583   -3.1099    7.6523 H   0  0  0  0  0  0  0  0  0  0  0  0
    2.8714    5.9175   13.6016 H   0  0  0  0  0  0  0  0  0  0  0  0
    1.5726    5.6069   14.8030 H   0  0  0  0  0  0  0  0  0  0  0  0
    2.1195    2.8726    9.5493 H   0  0  0  0  0  0  0  0  0  0  0  0
    3.5337    2.1715   10.4068 H   0  0  0  0  0  0  0  0  0  0  0  0
    1.0175    6.7337   12.0435 H   0  0  0  0  0  0  0  0  0  0  0  0
    1.4359    7.7706   13.4493 H   0  0  0  0  0  0  0  0  0  0  0  0
    4.5032   -2.4750    5.3950 H   0  0  0  0  0  0  0  0  0  0  0  0
    5.9545   -1.5147    5.8404 H   0  0  0  0  0  0  0  0  0  0  0  0
    1.9039    0.2396   10.9990 H   0  0  0  0  0  0  0  0  0  0  0  0
    0.9105    0.8928    9.6525 H   0  0  0  0  0  0  0  0  0  0  0  0
   -2.6364    6.9403   15.4502 H   0  0  0  0  0  0  0  0  0  0  0  0
   -2.6180    9.5181   12.0249 H   0  0  0  0  0  0  0  0  0  0  0  0
   -5.0353    9.9097   12.2813 H   0  0  0  0  0  0  0  0  0  0  0  0
    5.8612   -1.3082    8.7163 H   0  0  0  0  0  0  0  0  0  0  0  0
    2.6125   -1.2754    5.9605 H   0  0  0  0  0  0  0  0  0  0  0  0
    4.4997   -0.0683   10.3348 H   0  0  0  0  0  0  0  0  0  0  0  0
    1.2619   -0.0117    7.5661 H   0  0  0  0  0  0  0  0  0  0  0  0
 13 35  1  0  0  0  0
 35 12  1  0  0  0  0
 10 12  2  0  0  0  0
 12  7  1  0  0  0  0
  7 11  2  0  0  0  0
 11 26  1  0  0  0  0
  6 11  1  0  0  0  0
  5  6  2  0  0  0  0
 10  5  1  0  0  0  0
 25 10  1  0  0  0  0
 13 25  2  0  0  0  0
 38 37  1  0  0  0  0
 26 14  1  0  0  0  0
 14 29  2  0  0  0  0
 14 21  1  0  0  0  0
 21 23  1  0  0  0  0
 23 28  1  0  0  0  0
 28 17  1  0  0  0  0
 17 32  2  0  0  0  0
 17 27  1  0  0  0  0
 27 22  1  0  0  0  0
 22 19  1  0  0  0  0
 19  8  1  0  0  0  0
  8  2  2  0  0  0  0
  8  1  1  0  0  0  0
  1  3  2  0  0  0  0
  3  9  1  0  0  0  0
  9 20  1  0  0  0  0
  4  9  2  0  0  0  0
  2  4  1  0  0  0  0
 20 24  1  0  0  0  0
 24 16  1  0  0  0  0
 24 15  1  0  0  0  0
 15 33  1  0  0  0  0
 15 30  2  0  0  0  0
 16 34  1  0  0  0  0
 16 31  2  0  0  0  0
  1 66  1  0  0  0  0
  2 65  1  0  0  0  0
  3 64  1  0  0  0  0
  4 63  1  0  0  0  0
  5 62  1  0  0  0  0
  6 61  1  0  0  0  0
  7 60  1  0  0  0  0
 37 36  1  0  0  0  0
 37 42  1  0  0  0  0
 37 41  1  0  0  0  0
 19 59  1  0  0  0  0
 19 58  1  0  0  0  0
 20 57  1  0  0  0  0
 20 56  1  0  0  0  0
 21 55  1  0  0  0  0
 21 54  1  0  0  0  0
 22 53  1  0  0  0  0
 22 52  1  0  0  0  0
 23 51  1  0  0  0  0
 23 50  1  0  0  0  0
 24 49  1  0  0  0  0
 26 48  1  0  0  0  0
 27 47  1  0  0  0  0
 28 46  1  0  0  0  0
 36 18  1  0  0  0  0
 36 40  1  0  0  0  0
 36 39  1  0  0  0  0
 18 45  1  0  0  0  0
 18 44  1  0  0  0  0
 18 43  1  0  0  0  0
 13 38  1  0  0  0  0
M  END
>  <EXTREG>  (LDHA31)
LDHA31

$$$$
LDHA32
  -MTS-   06061610263D 0   0.00000     0.00000     0

 64 66  0  0  0  0  0  0  0  0999 V2000
    2.2747   -0.2961    7.8277 C   0  0  0  0  0  0  0  0  0  0  0  0
    4.0799   -0.3244    9.3687 C   0  0  0  0  0  0  0  0  0  0  0  0
    3.0369   -1.0087    6.9217 C   0  0  0  0  0  0  0  0  0  0  0  0
    4.8457   -1.0304    8.4582 C   0  0  0  0  0  0  0  0  0  0  0  0
   -4.5161    9.2572   12.9739 C   0  0  0  0  0  0  0  0  0  0  0  0
   -3.1573    9.0392   12.8342 C   0  0  0  0  0  0  0  0  0  0  0  0
   -3.1600    7.5868   14.7553 C   0  0  0  0  0  0  0  0  0  0  0  0
    2.7848    0.0599    9.0639 C   0  0  0  0  0  0  0  0  0  0  0  0
    4.3342   -1.3872    7.2227 C   0  0  0  0  0  0  0  0  0  0  0  0
   -5.2170    8.6361   14.0074 C   0  0  0  0  0  0  0  0  0  0  0  0
   -2.4764    8.2137   13.7192 C   0  0  0  0  0  0  0  0  0  0  0  0
   -4.5226    7.8036   14.8833 C   0  0  0  0  0  0  0  0  0  0  0  0
   -6.9143    8.0400   15.3132 C   0  0  0  0  0  0  0  0  0  0  0  0
   -0.4584    6.7923   13.5872 C   0  0  0  0  0  0  0  0  0  0  0  0
    4.0866   -4.1699    6.5830 C   0  0  0  0  0  0  0  0  0  0  0  0
    5.7368   -3.7299    4.7343 C   0  0  0  0  0  0  0  0  0  0  0  0
    2.1541    3.9843   11.9871 C   0  0  0  0  0  0  0  0  0  0  0  0
   -9.0109    8.0736   20.1490 C   0  0  0  0  0  0  0  0  0  0  0  0
    1.9291    0.8116   10.0598 C   0  0  0  0  0  0  0  0  0  0  0  0
    4.6000   -3.1571    5.5718 C   0  0  0  0  0  0  0  0  0  0  0  0
    0.9877    6.8149   13.1401 C   0  0  0  0  0  0  0  0  0  0  0  0
    2.4351    2.1986   10.3593 C   0  0  0  0  0  0  0  0  0  0  0  0
    1.8040    5.6851   13.7305 C   0  0  0  0  0  0  0  0  0  0  0  0
    4.6929   -4.4262    7.6421 O   0  0  0  0  0  0  0  0  0  0  0  0
   -6.5796    8.7588   14.2689 N   0  0  0  0  0  0  0  0  0  0  0  0
   -1.0866    7.9930   13.5611 N   0  0  0  0  0  0  0  0  0  0  0  0
    1.9241    2.7137   11.6232 N   0  0  0  0  0  0  0  0  0  0  0  0
    1.5267    4.3997   13.0984 N   0  0  0  0  0  0  0  0  0  0  0  0
   -0.9986    5.7556   13.9669 O   0  0  0  0  0  0  0  0  0  0  0  0
    5.5602   -4.5423    3.8357 O   0  0  0  0  0  0  0  0  0  0  0  0
    2.9554   -4.6815    6.2248 O   0  0  0  0  0  0  0  0  0  0  0  0
    2.9315    4.7016   11.3653 O   0  0  0  0  0  0  0  0  0  0  0  0
    6.8974   -3.2712    5.0796 O   0  0  0  0  0  0  0  0  0  0  0  0
    5.1218   -2.0328    6.3294 O   0  0  0  0  0  0  0  0  0  0  0  0
   -5.6233    7.1677   16.0718 S   0  0  0  0  0  0  0  0  0  0  0  0
   -8.4691    8.3856   18.7420 C   0  0  0  0  0  0  0  0  0  0  0  0
   -8.3516    7.3387   17.6186 C   0  0  0  0  0  0  0  0  0  0  0  0
   -8.6012    8.0075   15.9481 S   0  0  0  0  0  0  0  0  0  0  0  0
   -7.4529    8.7784   18.8930 H   0  0  0  0  0  0  0  0  0  0  0  0
   -9.1139    9.1821   18.3428 H   0  0  0  0  0  0  0  0  0  0  0  0
   -9.1064    6.5580   17.7939 H   0  0  0  0  0  0  0  0  0  0  0  0
   -7.3469    6.8941   17.6653 H   0  0  0  0  0  0  0  0  0  0  0  0
  -10.0448    7.7069   20.0708 H   0  0  0  0  0  0  0  0  0  0  0  0
   -8.3838    7.3031   20.6209 H   0  0  0  0  0  0  0  0  0  0  0  0
   -8.9912    8.9880   20.7604 H   0  0  0  0  0  0  0  0  0  0  0  0
    0.8392    3.8022   13.5112 H   0  0  0  0  0  0  0  0  0  0  0  0
    1.3968    2.1141   12.2252 H   0  0  0  0  0  0  0  0  0  0  0  0
   -0.5140    8.8000   13.4164 H   0  0  0  0  0  0  0  0  0  0  0  0
    2.8714    5.9175   13.6016 H   0  0  0  0  0  0  0  0  0  0  0  0
    1.5726    5.6069   14.8030 H   0  0  0  0  0  0  0  0  0  0  0  0
    2.1195    2.8726    9.5493 H   0  0  0  0  0  0  0  0  0  0  0  0
    3.5337    2.1715   10.4068 H   0  0  0  0  0  0  0  0  0  0  0  0
    1.0175    6.7337   12.0435 H   0  0  0  0  0  0  0  0  0  0  0  0
    1.4359    7.7706   13.4493 H   0  0  0  0  0  0  0  0  0  0  0  0
    3.7796   -2.8347    4.9136 H   0  0  0  0  0  0  0  0  0  0  0  0
    1.9039    0.2396   10.9990 H   0  0  0  0  0  0  0  0  0  0  0  0
    0.9105    0.8928    9.6525 H   0  0  0  0  0  0  0  0  0  0  0  0
   -2.6364    6.9403   15.4502 H   0  0  0  0  0  0  0  0  0  0  0  0
   -2.6180    9.5181   12.0249 H   0  0  0  0  0  0  0  0  0  0  0  0
   -5.0353    9.9097   12.2813 H   0  0  0  0  0  0  0  0  0  0  0  0
    5.8612   -1.3082    8.7163 H   0  0  0  0  0  0  0  0  0  0  0  0
    2.6125   -1.2754    5.9605 H   0  0  0  0  0  0  0  0  0  0  0  0
    4.4997   -0.0683   10.3348 H   0  0  0  0  0  0  0  0  0  0  0  0
    1.2619   -0.0117    7.5661 H   0  0  0  0  0  0  0  0  0  0  0  0
 13 35  1  0  0  0  0
 35 12  1  0  0  0  0
 10 12  2  0  0  0  0
 12  7  1  0  0  0  0
  7 11  2  0  0  0  0
 11 26  1  0  0  0  0
  6 11  1  0  0  0  0
  5  6  2  0  0  0  0
 10  5  1  0  0  0  0
 25 10  1  0  0  0  0
 13 25  2  0  0  0  0
 38 37  1  0  0  0  0
 26 14  1  0  0  0  0
 14 29  2  0  0  0  0
 14 21  1  0  0  0  0
 21 23  1  0  0  0  0
 23 28  1  0  0  0  0
 28 17  1  0  0  0  0
 17 32  2  0  0  0  0
 17 27  1  0  0  0  0
 27 22  1  0  0  0  0
 22 19  1  0  0  0  0
 19  8  1  0  0  0  0
  8  2  2  0  0  0  0
  8  1  1  0  0  0  0
  1  3  2  0  0  0  0
  3  9  1  0  0  0  0
 34 20  1  0  0  0  0
  4  9  2  0  0  0  0
  2  4  1  0  0  0  0
 20 55  1  0  0  0  0
 20 15  1  0  0  0  0
 20 16  1  0  0  0  0
 16 30  2  0  0  0  0
 16 33  1  0  0  0  0
 15 24  2  0  0  0  0
 15 31  1  0  0  0  0
  1 64  1  0  0  0  0
  2 63  1  0  0  0  0
  3 62  1  0  0  0  0
  4 61  1  0  0  0  0
  5 60  1  0  0  0  0
  6 59  1  0  0  0  0
  7 58  1  0  0  0  0
 37 41  1  0  0  0  0
 37 42  1  0  0  0  0
 37 36  1  0  0  0  0
 19 57  1  0  0  0  0
 19 56  1  0  0  0  0
  9 34  1  0  0  0  0
 21 54  1  0  0  0  0
 21 53  1  0  0  0  0
 22 52  1  0  0  0  0
 22 51  1  0  0  0  0
 23 50  1  0  0  0  0
 23 49  1  0  0  0  0
 26 48  1  0  0  0  0
 27 47  1  0  0  0  0
 28 46  1  0  0  0  0
 36 39  1  0  0  0  0
 36 40  1  0  0  0  0
 36 18  1  0  0  0  0
 18 43  1  0  0  0  0
 18 44  1  0  0  0  0
 18 45  1  0  0  0  0
 13 38  1  0  0  0  0
M  END
>  <EXTREG>  (LDHA32)
LDHA32

$$$$
LDHA33
  -MTS-   06061610263D 0   0.00000     0.00000     0

 60 62  0  0  0  0  0  0  0  0999 V2000
    2.2836   -0.3921    7.8960 C   0  0  0  0  0  0  0  0  0  0  0  0
    4.1117   -0.2722    9.4036 C   0  0  0  0  0  0  0  0  0  0  0  0
    3.0594   -1.1221    7.0146 C   0  0  0  0  0  0  0  0  0  0  0  0
    4.8896   -0.9952    8.5201 C   0  0  0  0  0  0  0  0  0  0  0  0
   -4.5261    9.3587   12.9867 C   0  0  0  0  0  0  0  0  0  0  0  0
   -3.1689    9.1617   12.8096 C   0  0  0  0  0  0  0  0  0  0  0  0
   -3.0922    7.7155   14.7324 C   0  0  0  0  0  0  0  0  0  0  0  0
    2.7984    0.0433    9.1042 C   0  0  0  0  0  0  0  0  0  0  0  0
    4.3717   -1.4382    7.3158 C   0  0  0  0  0  0  0  0  0  0  0  0
   -5.1863    8.7259   14.0383 C   0  0  0  0  0  0  0  0  0  0  0  0
   -2.4500    8.3480   13.6755 C   0  0  0  0  0  0  0  0  0  0  0  0
   -4.4524    7.9097   14.8949 C   0  0  0  0  0  0  0  0  0  0  0  0
   -6.8360    8.1001   15.3955 C   0  0  0  0  0  0  0  0  0  0  0  0
   -0.3655    7.0246   13.7202 C   0  0  0  0  0  0  0  0  0  0  0  0
    2.1899    4.1064   12.1579 C   0  0  0  0  0  0  0  0  0  0  0  0
    4.7912   -4.4377    7.5066 C   0  0  0  0  0  0  0  0  0  0  0  0
    6.7610   -4.2112    6.0202 C   0  0  0  0  0  0  0  0  0  0  0  0
   -8.2230    8.0087   15.9620 C   0  0  0  0  0  0  0  0  0  0  0  0
    1.9456    0.8281   10.0783 C   0  0  0  0  0  0  0  0  0  0  0  0
    5.2185   -2.2315    6.3559 C   0  0  0  0  0  0  0  0  0  0  0  0
    1.0941    7.0791   13.3238 C   0  0  0  0  0  0  0  0  0  0  0  0
    1.7282    2.7402   11.7228 C   0  0  0  0  0  0  0  0  0  0  0  0
    2.4692    2.1829   10.5171 C   0  0  0  0  0  0  0  0  0  0  0  0
    1.8874    5.9006   13.8413 C   0  0  0  0  0  0  0  0  0  0  0  0
    5.8435   -3.4904    6.9869 C   0  0  0  0  0  0  0  0  0  0  0  0
   -6.5449    8.8169   14.3373 N   0  0  0  0  0  0  0  0  0  0  0  0
   -1.0588    8.1594   13.4937 N   0  0  0  0  0  0  0  0  0  0  0  0
    1.5168    4.6511   13.1794 N   0  0  0  0  0  0  0  0  0  0  0  0
   -0.8800    6.0035   14.1666 O   0  0  0  0  0  0  0  0  0  0  0  0
    3.1199    4.6667   11.5839 O   0  0  0  0  0  0  0  0  0  0  0  0
    4.8611   -4.9001    8.6319 O   0  0  0  0  0  0  0  0  0  0  0  0
    7.8874   -3.7957    5.8092 O   0  0  0  0  0  0  0  0  0  0  0  0
    3.8391   -4.6933    6.6663 O   0  0  0  0  0  0  0  0  0  0  0  0
    6.2619   -5.2788    5.4654 O   0  0  0  0  0  0  0  0  0  0  0  0
   -5.5020    7.2649   16.1215 S   0  0  0  0  0  0  0  0  0  0  0  0
    0.7055    4.1704   13.5120 H   0  0  0  0  0  0  0  0  0  0  0  0
   -0.5376    8.9466   13.1642 H   0  0  0  0  0  0  0  0  0  0  0  0
    6.4509   -3.1619    7.8431 H   0  0  0  0  0  0  0  0  0  0  0  0
    2.9569    6.0898   13.6672 H   0  0  0  0  0  0  0  0  0  0  0  0
    1.7043    5.7971   14.9210 H   0  0  0  0  0  0  0  0  0  0  0  0
    2.3605    2.8891    9.6808 H   0  0  0  0  0  0  0  0  0  0  0  0
    3.5336    2.0812   10.7752 H   0  0  0  0  0  0  0  0  0  0  0  0
    1.8678    2.0454   12.5641 H   0  0  0  0  0  0  0  0  0  0  0  0
    0.6591    2.8018   11.4716 H   0  0  0  0  0  0  0  0  0  0  0  0
    1.1597    7.0916   12.2258 H   0  0  0  0  0  0  0  0  0  0  0  0
    1.5336    8.0029   13.7280 H   0  0  0  0  0  0  0  0  0  0  0  0
    4.5882   -2.5421    5.5096 H   0  0  0  0  0  0  0  0  0  0  0  0
    6.0301   -1.5850    5.9908 H   0  0  0  0  0  0  0  0  0  0  0  0
    1.8214    0.2122   10.9812 H   0  0  0  0  0  0  0  0  0  0  0  0
    0.9651    0.9885    9.6061 H   0  0  0  0  0  0  0  0  0  0  0  0
   -8.5528    6.9593   15.9568 H   0  0  0  0  0  0  0  0  0  0  0  0
   -8.2231    8.3879   16.9946 H   0  0  0  0  0  0  0  0  0  0  0  0
   -8.9096    8.6118   15.3498 H   0  0  0  0  0  0  0  0  0  0  0  0
   -2.5386    7.0823   15.4163 H   0  0  0  0  0  0  0  0  0  0  0  0
   -2.6601    9.6481   11.9852 H   0  0  0  0  0  0  0  0  0  0  0  0
   -5.0748   10.0034   12.3096 H   0  0  0  0  0  0  0  0  0  0  0  0
    5.9196   -1.2185    8.7737 H   0  0  0  0  0  0  0  0  0  0  0  0
    2.6330   -1.4514    6.0740 H   0  0  0  0  0  0  0  0  0  0  0  0
    4.5370    0.0530   10.3462 H   0  0  0  0  0  0  0  0  0  0  0  0
    1.2575   -0.1576    7.6368 H   0  0  0  0  0  0  0  0  0  0  0  0
 35 13  1  0  0  0  0
 35 12  1  0  0  0  0
 12 10  2  0  0  0  0
 12  7  1  0  0  0  0
  7 11  2  0  0  0  0
 11 27  1  0  0  0  0
 11  6  1  0  0  0  0
  6  5  2  0  0  0  0
  5 10  1  0  0  0  0
 10 26  1  0  0  0  0
 26 13  2  0  0  0  0
 13 18  1  0  0  0  0
 27 14  1  0  0  0  0
 14 29  2  0  0  0  0
 14 21  1  0  0  0  0
 21 24  1  0  0  0  0
 24 28  1  0  0  0  0
 28 15  1  0  0  0  0
 15 30  2  0  0  0  0
 15 22  1  0  0  0  0
 22 23  1  0  0  0  0
 23 19  1  0  0  0  0
 19  8  1  0  0  0  0
  8  2  2  0  0  0  0
  8  1  1  0  0  0  0
  1  3  2  0  0  0  0
  3  9  1  0  0  0  0
  9 20  1  0  0  0  0
  9  4  2  0  0  0  0
  4  2  1  0  0  0  0
 20 25  1  0  0  0  0
 25 17  1  0  0  0  0
 25 16  1  0  0  0  0
 16 33  1  0  0  0  0
 16 31  2  0  0  0  0
 17 34  1  0  0  0  0
 17 32  2  0  0  0  0
  1 60  1  0  0  0  0
  2 59  1  0  0  0  0
  3 58  1  0  0  0  0
  4 57  1  0  0  0  0
  5 56  1  0  0  0  0
  6 55  1  0  0  0  0
  7 54  1  0  0  0  0
 18 53  1  0  0  0  0
 18 52  1  0  0  0  0
 18 51  1  0  0  0  0
 19 50  1  0  0  0  0
 19 49  1  0  0  0  0
 20 48  1  0  0  0  0
 20 47  1  0  0  0  0
 21 46  1  0  0  0  0
 21 45  1  0  0  0  0
 22 44  1  0  0  0  0
 22 43  1  0  0  0  0
 23 42  1  0  0  0  0
 23 41  1  0  0  0  0
 24 40  1  0  0  0  0
 24 39  1  0  0  0  0
 25 38  1  0  0  0  0
 27 37  1  0  0  0  0
 28 36  1  0  0  0  0
M  END
>  <EXTREG>  (LDHA33)
LDHA33

$$$$
LDHA34
  -MTS-   06061610263D 0   0.00000     0.00000     0

 67 69  0  0  0  0  0  0  0  0999 V2000
    2.2836   -0.3921    7.8960 C   0  0  0  0  0  0  0  0  0  0  0  0
    4.1117   -0.2722    9.4036 C   0  0  0  0  0  0  0  0  0  0  0  0
    3.0594   -1.1221    7.0146 C   0  0  0  0  0  0  0  0  0  0  0  0
    4.8896   -0.9952    8.5201 C   0  0  0  0  0  0  0  0  0  0  0  0
   -4.5261    9.3587   12.9867 C   0  0  0  0  0  0  0  0  0  0  0  0
   -3.1689    9.1617   12.8096 C   0  0  0  0  0  0  0  0  0  0  0  0
   -3.0922    7.7155   14.7324 C   0  0  0  0  0  0  0  0  0  0  0  0
    2.7984    0.0433    9.1042 C   0  0  0  0  0  0  0  0  0  0  0  0
    4.3717   -1.4382    7.3158 C   0  0  0  0  0  0  0  0  0  0  0  0
   -5.1863    8.7259   14.0383 C   0  0  0  0  0  0  0  0  0  0  0  0
   -2.4500    8.3480   13.6755 C   0  0  0  0  0  0  0  0  0  0  0  0
   -4.4524    7.9097   14.8949 C   0  0  0  0  0  0  0  0  0  0  0  0
   -6.8360    8.1001   15.3955 C   0  0  0  0  0  0  0  0  0  0  0  0
   -0.3655    7.0246   13.7202 C   0  0  0  0  0  0  0  0  0  0  0  0
    2.1899    4.1064   12.1579 C   0  0  0  0  0  0  0  0  0  0  0  0
    4.7912   -4.4377    7.5066 C   0  0  0  0  0  0  0  0  0  0  0  0
    6.7610   -4.2112    6.0202 C   0  0  0  0  0  0  0  0  0  0  0  0
   -8.8594    8.0953   20.2903 C   0  0  0  0  0  0  0  0  0  0  0  0
    1.9456    0.8281   10.0783 C   0  0  0  0  0  0  0  0  0  0  0  0
    5.2185   -2.2315    6.3559 C   0  0  0  0  0  0  0  0  0  0  0  0
    1.0941    7.0791   13.3238 C   0  0  0  0  0  0  0  0  0  0  0  0
    1.7282    2.7402   11.7228 C   0  0  0  0  0  0  0  0  0  0  0  0
    2.4692    2.1829   10.5171 C   0  0  0  0  0  0  0  0  0  0  0  0
    1.8874    5.9006   13.8413 C   0  0  0  0  0  0  0  0  0  0  0  0
    5.8435   -3.4904    6.9869 C   0  0  0  0  0  0  0  0  0  0  0  0
   -6.5449    8.8169   14.3373 N   0  0  0  0  0  0  0  0  0  0  0  0
   -1.0588    8.1594   13.4937 N   0  0  0  0  0  0  0  0  0  0  0  0
    1.5168    4.6511   13.1794 N   0  0  0  0  0  0  0  0  0  0  0  0
   -0.8800    6.0035   14.1666 O   0  0  0  0  0  0  0  0  0  0  0  0
    3.1199    4.6667   11.5839 O   0  0  0  0  0  0  0  0  0  0  0  0
    4.8611   -4.9001    8.6319 O   0  0  0  0  0  0  0  0  0  0  0  0
    7.8874   -3.7957    5.8092 O   0  0  0  0  0  0  0  0  0  0  0  0
    3.8391   -4.6933    6.6663 O   0  0  0  0  0  0  0  0  0  0  0  0
    6.2619   -5.2788    5.4654 O   0  0  0  0  0  0  0  0  0  0  0  0
   -5.5020    7.2649   16.1215 S   0  0  0  0  0  0  0  0  0  0  0  0
   -8.3239    8.3981   18.8789 C   0  0  0  0  0  0  0  0  0  0  0  0
   -8.2206    7.3462   17.7588 C   0  0  0  0  0  0  0  0  0  0  0  0
   -8.4755    8.0104   16.0873 S   0  0  0  0  0  0  0  0  0  0  0  0
   -7.3040    8.7842   19.0223 H   0  0  0  0  0  0  0  0  0  0  0  0
   -8.9654    9.1977   18.4805 H   0  0  0  0  0  0  0  0  0  0  0  0
   -8.9799    6.5716   17.9416 H   0  0  0  0  0  0  0  0  0  0  0  0
   -7.2189    6.8946   17.8012 H   0  0  0  0  0  0  0  0  0  0  0  0
   -9.8964    7.7358   20.2196 H   0  0  0  0  0  0  0  0  0  0  0  0
   -8.2350    7.3222   20.7613 H   0  0  0  0  0  0  0  0  0  0  0  0
   -8.8295    9.0119   20.8980 H   0  0  0  0  0  0  0  0  0  0  0  0
    0.7055    4.1704   13.5120 H   0  0  0  0  0  0  0  0  0  0  0  0
   -0.5376    8.9466   13.1642 H   0  0  0  0  0  0  0  0  0  0  0  0
    6.4509   -3.1619    7.8431 H   0  0  0  0  0  0  0  0  0  0  0  0
    2.9569    6.0898   13.6672 H   0  0  0  0  0  0  0  0  0  0  0  0
    1.7043    5.7971   14.9210 H   0  0  0  0  0  0  0  0  0  0  0  0
    2.3605    2.8891    9.6808 H   0  0  0  0  0  0  0  0  0  0  0  0
    3.5336    2.0812   10.7752 H   0  0  0  0  0  0  0  0  0  0  0  0
    1.8678    2.0454   12.5641 H   0  0  0  0  0  0  0  0  0  0  0  0
    0.6591    2.8018   11.4716 H   0  0  0  0  0  0  0  0  0  0  0  0
    1.1597    7.0916   12.2258 H   0  0  0  0  0  0  0  0  0  0  0  0
    1.5336    8.0029   13.7280 H   0  0  0  0  0  0  0  0  0  0  0  0
    4.5882   -2.5421    5.5096 H   0  0  0  0  0  0  0  0  0  0  0  0
    6.0301   -1.5850    5.9908 H   0  0  0  0  0  0  0  0  0  0  0  0
    1.8214    0.2122   10.9812 H   0  0  0  0  0  0  0  0  0  0  0  0
    0.9651    0.9885    9.6061 H   0  0  0  0  0  0  0  0  0  0  0  0
   -2.5386    7.0823   15.4163 H   0  0  0  0  0  0  0  0  0  0  0  0
   -2.6601    9.6481   11.9852 H   0  0  0  0  0  0  0  0  0  0  0  0
   -5.0748   10.0034   12.3096 H   0  0  0  0  0  0  0  0  0  0  0  0
    5.9196   -1.2185    8.7737 H   0  0  0  0  0  0  0  0  0  0  0  0
    2.6330   -1.4514    6.0740 H   0  0  0  0  0  0  0  0  0  0  0  0
    4.5370    0.0530   10.3462 H   0  0  0  0  0  0  0  0  0  0  0  0
    1.2575   -0.1576    7.6368 H   0  0  0  0  0  0  0  0  0  0  0  0
 13 35  1  0  0  0  0
 35 12  1  0  0  0  0
 10 12  2  0  0  0  0
 12  7  1  0  0  0  0
  7 11  2  0  0  0  0
 11 27  1  0  0  0  0
  6 11  1  0  0  0  0
  5  6  2  0  0  0  0
 10  5  1  0  0  0  0
 26 10  1  0  0  0  0
 13 26  2  0  0  0  0
 38 37  1  0  0  0  0
 27 14  1  0  0  0  0
 14 29  2  0  0  0  0
 14 21  1  0  0  0  0
 21 24  1  0  0  0  0
 24 28  1  0  0  0  0
 28 15  1  0  0  0  0
 15 30  2  0  0  0  0
 15 22  1  0  0  0  0
 22 23  1  0  0  0  0
 23 19  1  0  0  0  0
 19  8  1  0  0  0  0
  8  2  2  0  0  0  0
  8  1  1  0  0  0  0
  1  3  2  0  0  0  0
  3  9  1  0  0  0  0
  9 20  1  0  0  0  0
  4  9  2  0  0  0  0
  2  4  1  0  0  0  0
 20 25  1  0  0  0  0
 25 17  1  0  0  0  0
 25 16  1  0  0  0  0
 16 33  1  0  0  0  0
 16 31  2  0  0  0  0
 17 34  1  0  0  0  0
 17 32  2  0  0  0  0
  1 67  1  0  0  0  0
  2 66  1  0  0  0  0
  3 65  1  0  0  0  0
  4 64  1  0  0  0  0
  5 63  1  0  0  0  0
  6 62  1  0  0  0  0
  7 61  1  0  0  0  0
 37 36  1  0  0  0  0
 37 42  1  0  0  0  0
 37 41  1  0  0  0  0
 19 60  1  0  0  0  0
 19 59  1  0  0  0  0
 20 58  1  0  0  0  0
 20 57  1  0  0  0  0
 21 56  1  0  0  0  0
 21 55  1  0  0  0  0
 22 54  1  0  0  0  0
 22 53  1  0  0  0  0
 23 52  1  0  0  0  0
 23 51  1  0  0  0  0
 24 50  1  0  0  0  0
 24 49  1  0  0  0  0
 25 48  1  0  0  0  0
 27 47  1  0  0  0  0
 28 46  1  0  0  0  0
 36 18  1  0  0  0  0
 36 40  1  0  0  0  0
 36 39  1  0  0  0  0
 18 45  1  0  0  0  0
 18 44  1  0  0  0  0
 18 43  1  0  0  0  0
 13 38  1  0  0  0  0
M  END
>  <EXTREG>  (LDHA34)
LDHA34

$$$$
